<?xml version="1.0" encoding="ISO-8859-1"?>
<!--
Problem Description:
	A poroelastic block of 10 elements is compressed in the z-direction by -0.1 units
	in time t=100, then allowed to relax to time t=1000.
Main Features:
	Poroelasticity
Secondary Features:
	Non-uniform element thickness in z-direction
Materials:
	Neo-Hookean
	Poroelastic
Degrees of Freedom: 80
Results:
	Steps Completed: 400
	Equilibrium Iterations: 1371
	Right Hand Evaluations: 2120
	Siffness Reformations: 1109
	Other:
		The Pressure for element 1 at time t=1000 is 1.73324e-006
Comments:
	
-->
<febio_spec version="1.2">
	<Module type="biphasic"/>
	<Control>
		<title>Poroelastic Confined Compression</title>
		<time_steps>400</time_steps>
		<step_size>2.5</step_size>
		<max_refs>15</max_refs>
		<max_ups>10</max_ups>
		<dtol>0.001</dtol>
		<etol>0.01</etol>
		<rtol>1e+010</rtol>
		<lstol>0.9</lstol>
	</Control>
	<Material>
		<material id="1" name="Biphasic material" type="biphasic">
			<phi0>0.2</phi0>
			<solid type="neo-Hookean">
				<density>1</density>
				<E>1</E>
				<v>0</v>
			</solid>
			<permeability type="perm-const-iso">
				<perm>0.001</perm>
			</permeability>
		</material>
	</Material>
	<Geometry>
		<Nodes>
			<node id="1">-5.0000000e-001,-5.0000000e-001, 0.0000000e+000</node>
			<node id="2">-5.0000000e-001,-5.0000000e-001, 3.3583093e-001</node>
			<node id="3">-5.0000000e-001,-5.0000000e-001, 5.6094509e-001</node>
			<node id="4">-5.0000000e-001,-5.0000000e-001, 7.1184367e-001</node>
			<node id="5">-5.0000000e-001,-5.0000000e-001, 8.1299400e-001</node>
			<node id="6">-5.0000000e-001,-5.0000000e-001, 8.8079709e-001</node>
			<node id="7">-5.0000000e-001,-5.0000000e-001, 9.2624682e-001</node>
			<node id="8">-5.0000000e-001,-5.0000000e-001, 9.5671272e-001</node>
			<node id="9">-5.0000000e-001,-5.0000000e-001, 9.7713464e-001</node>
			<node id="10">-5.0000000e-001,-5.0000000e-001, 9.9082386e-001</node>
			<node id="11">-5.0000000e-001,-5.0000000e-001, 1.0000000e+000</node>
			<node id="12">-5.0000000e-001, 5.0000000e-001, 0.0000000e+000</node>
			<node id="13">-5.0000000e-001, 5.0000000e-001, 3.3583093e-001</node>
			<node id="14">-5.0000000e-001, 5.0000000e-001, 5.6094509e-001</node>
			<node id="15">-5.0000000e-001, 5.0000000e-001, 7.1184367e-001</node>
			<node id="16">-5.0000000e-001, 5.0000000e-001, 8.1299400e-001</node>
			<node id="17">-5.0000000e-001, 5.0000000e-001, 8.8079709e-001</node>
			<node id="18">-5.0000000e-001, 5.0000000e-001, 9.2624682e-001</node>
			<node id="19">-5.0000000e-001, 5.0000000e-001, 9.5671272e-001</node>
			<node id="20">-5.0000000e-001, 5.0000000e-001, 9.7713464e-001</node>
<!-- ... 24 like lines cut -->
		</Nodes>
		<Elements>
			<hex8 id="1" mat="1">     1,    23,    34,    12,     2,    24,    35,    13</hex8>
			<hex8 id="2" mat="1">     2,    24,    35,    13,     3,    25,    36,    14</hex8>
			<hex8 id="3" mat="1">     3,    25,    36,    14,     4,    26,    37,    15</hex8>
			<hex8 id="4" mat="1">     4,    26,    37,    15,     5,    27,    38,    16</hex8>
			<hex8 id="5" mat="1">     5,    27,    38,    16,     6,    28,    39,    17</hex8>
			<hex8 id="6" mat="1">     6,    28,    39,    17,     7,    29,    40,    18</hex8>
			<hex8 id="7" mat="1">     7,    29,    40,    18,     8,    30,    41,    19</hex8>
			<hex8 id="8" mat="1">     8,    30,    41,    19,     9,    31,    42,    20</hex8>
			<hex8 id="9" mat="1">     9,    31,    42,    20,    10,    32,    43,    21</hex8>
			<hex8 id="10" mat="1">    10,    32,    43,    21,    11,    33,    44,    22</hex8>
		</Elements>
	</Geometry>
	<Boundary>
		<fix>
			<node id="1" bc="xyz"></node>
			<node id="2" bc="xy"></node>
			<node id="3" bc="xy"></node>
			<node id="4" bc="xy"></node>
			<node id="5" bc="xy"></node>
			<node id="6" bc="xy"></node>
			<node id="7" bc="xy"></node>
			<node id="8" bc="xy"></node>
			<node id="9" bc="xy"></node>
			<node id="10" bc="xy"></node>
			<node id="11" bc="xy"></node>
			<node id="12" bc="xyz"></node>
			<node id="13" bc="xy"></node>
			<node id="14" bc="xy"></node>
			<node id="15" bc="xy"></node>
			<node id="16" bc="xy"></node>
			<node id="17" bc="xy"></node>
			<node id="18" bc="xy"></node>
			<node id="19" bc="xy"></node>
			<node id="20" bc="xy"></node>
			<node id="21" bc="xy"></node>
			<node id="22" bc="xy"></node>
			<node id="23" bc="xyz"></node>
			<node id="24" bc="xy"></node>
			<node id="25" bc="xy"></node>
			<node id="26" bc="xy"></node>
			<node id="27" bc="xy"></node>
			<node id="28" bc="xy"></node>
			<node id="29" bc="xy"></node>
			<node id="30" bc="xy"></node>
			<node id="31" bc="xy"></node>
			<node id="32" bc="xy"></node>
			<node id="33" bc="xy"></node>
			<node id="34" bc="xyz"></node>
			<node id="35" bc="xy"></node>
			<node id="36" bc="xy"></node>
			<node id="37" bc="xy"></node>
			<node id="38" bc="xy"></node>
			<node id="39" bc="xy"></node>
			<node id="40" bc="xy"></node>
			<node id="41" bc="xy"></node>
			<node id="42" bc="xy"></node>
			<node id="43" bc="xy"></node>
			<node id="44" bc="xy"></node>
			<node id="11" bc="p"></node>
			<node id="22" bc="p"></node>
			<node id="33" bc="p"></node>
			<node id="44" bc="p"></node>
		</fix>
		<prescribe>
			<node id="11" bc="z" lc="1">1</node>
			<node id="22" bc="z" lc="1">1</node>
			<node id="33" bc="z" lc="1">1</node>
			<node id="44" bc="z" lc="1">1</node>
		</prescribe>
	</Boundary>
	<LoadData>
		<loadcurve id="1">
			<loadpoint>0,0</loadpoint>
			<loadpoint>100,-0.1</loadpoint>
			<loadpoint>100,-0.1</loadpoint>
		</loadcurve>
	</LoadData>
	<Output>
		<plotfile type="febio">
			<var type="displacement"/>
			<var type="effective fluid pressure"/>
			<var type="fluid flux"/>
			<var type="fluid pressure"/>
			<var type="relative volume"/>
			<var type="stress"/>
		</plotfile>
		<logfile>
			<element_data data="p">1</element_data>
		</logfile>
	</Output>
</febio_spec>
