<?xml version="1.0" encoding="ISO-8859-1"?>
<!--
Problem Description:
	Biphasic unconfined compression of a circular disk.  The disk is modeled using
	a wedge with 30 elements along the radial direction. It has a radius of 3 mm
	and a thickness of 1 mm. It is compressed in the z-direction by -0.2 mm using 
	a step function, then allowed to relax to time t=1e4 s.
Main Features:
	Biphasic
Secondary Features:
	Non-uniform element thickness in r-direction.
	Axisymmetry modeled using wedge geometry and symmetry plane with 
	sliding-tension-compression contact interface.
Materials:
	Neo-Hookean
	Biphasic
Degrees of Freedom: 359
Results:
	Steps Completed: 65
	Equilibrium Iterations: 190
	Right Hand Evaluations: 255
	Siffness Reformations: 190
	Other:
	
Comments:
	
-->
<febio_spec version="1.2">
	<Module type="biphasic"/>
	<Control>
		<time_steps>100000</time_steps>
		<step_size>0.1</step_size>
		<max_refs>15</max_refs>
		<max_ups>0</max_ups>
		<dtol>0.001</dtol>
		<etol>0.01</etol>
		<rtol>0</rtol>
		<ptol>0.01</ptol>
		<lstol>0.9</lstol>
		<time_stepper>
			<dtmin>0.01</dtmin>
			<dtmax lc="1"></dtmax>
			<max_retries>5</max_retries>
			<opt_iter>10</opt_iter>
		</time_stepper>
		<symmetric_biphasic>0</symmetric_biphasic>
	</Control>
	<Globals>
		<Constants>
			<T>0</T>
			<R>0</R>
			<Fc>0</Fc>
		</Constants>
	</Globals>
	<Material>
		<material id="1" name="Biphasic Material" type="biphasic">
			<phi0>0.2</phi0>
			<solid type="neo-Hookean">
				<density>1</density>
				<E>1</E>
				<v>0.1</v>
			</solid>
			<permeability type="perm-const-iso">
				<perm>0.001</perm>
			</permeability>
		</material>
		<material id="2" name="Symmetry Plane" type="rigid body">
			<density>1</density>
			<center_of_mass>0,0,0</center_of_mass>
		</material>
	</Material>
	<Geometry>
		<Nodes>
			<node id="1">  0.0000000e+00,  0.0000000e+00,  0.0000000e+00</node>
			<node id="2">  3.9607228e-01,  0.0000000e+00,  0.0000000e+00</node>
			<node id="3">  3.9552948e-01,  2.0728821e-02,  0.0000000e+00</node>
			<node id="4">  7.4065517e-01,  0.0000000e+00,  0.0000000e+00</node>
			<node id="5">  7.3964013e-01,  3.8762896e-02,  0.0000000e+00</node>
			<node id="6">  1.0404423e+00,  0.0000000e+00,  0.0000000e+00</node>
			<node id="7">  1.0390164e+00,  5.4452541e-02,  0.0000000e+00</node>
			<node id="8">  1.3012571e+00,  0.0000000e+00,  0.0000000e+00</node>
			<node id="9">  1.2994737e+00,  6.8102532e-02,  0.0000000e+00</node>
			<node id="10">  1.5281659e+00,  0.0000000e+00,  0.0000000e+00</node>
			<node id="11">  1.5260716e+00,  7.9978024e-02,  0.0000000e+00</node>
			<node id="12">  1.7255766e+00,  0.0000000e+00,  0.0000000e+00</node>
			<node id="13">  1.7232118e+00,  9.0309702e-02,  0.0000000e+00</node>
			<node id="14">  1.8973240e+00,  0.0000000e+00,  0.0000000e+00</node>
			<node id="15">  1.8947237e+00,  9.9298262e-02,  0.0000000e+00</node>
			<node id="16">  2.0467441e+00,  0.0000000e+00,  0.0000000e+00</node>
			<node id="17">  2.0439391e+00,  1.0711831e-01,  0.0000000e+00</node>
			<node id="18">  2.1767397e+00,  0.0000000e+00,  0.0000000e+00</node>
			<node id="19">  2.1737565e+00,  1.1392175e-01,  0.0000000e+00</node>
			<node id="20">  2.2898358e+00,  0.0000000e+00,  0.0000000e+00</node>
<!-- ... 106 like lines cut -->
		</Nodes>
		<Elements>
			<penta6 id="1" mat="1">     1,     2,     3,    62,    63,    64</penta6>
			<hex8 id="2" mat="1">     2,     4,     5,     3,    63,    65,    66,    64</hex8>
			<hex8 id="3" mat="1">     4,     6,     7,     5,    65,    67,    68,    66</hex8>
			<hex8 id="4" mat="1">     6,     8,     9,     7,    67,    69,    70,    68</hex8>
			<hex8 id="5" mat="1">     8,    10,    11,     9,    69,    71,    72,    70</hex8>
			<hex8 id="6" mat="1">    10,    12,    13,    11,    71,    73,    74,    72</hex8>
			<hex8 id="7" mat="1">    12,    14,    15,    13,    73,    75,    76,    74</hex8>
			<hex8 id="8" mat="1">    14,    16,    17,    15,    75,    77,    78,    76</hex8>
			<hex8 id="9" mat="1">    16,    18,    19,    17,    77,    79,    80,    78</hex8>
			<hex8 id="10" mat="1">    18,    20,    21,    19,    79,    81,    82,    80</hex8>
			<hex8 id="11" mat="1">    20,    22,    23,    21,    81,    83,    84,    82</hex8>
			<hex8 id="12" mat="1">    22,    24,    25,    23,    83,    85,    86,    84</hex8>
			<hex8 id="13" mat="1">    24,    26,    27,    25,    85,    87,    88,    86</hex8>
			<hex8 id="14" mat="1">    26,    28,    29,    27,    87,    89,    90,    88</hex8>
			<hex8 id="15" mat="1">    28,    30,    31,    29,    89,    91,    92,    90</hex8>
			<hex8 id="16" mat="1">    30,    32,    33,    31,    91,    93,    94,    92</hex8>
			<hex8 id="17" mat="1">    32,    34,    35,    33,    93,    95,    96,    94</hex8>
			<hex8 id="18" mat="1">    34,    36,    37,    35,    95,    97,    98,    96</hex8>
			<hex8 id="19" mat="1">    36,    38,    39,    37,    97,    99,   100,    98</hex8>
			<hex8 id="20" mat="1">    38,    40,    41,    39,    99,   101,   102,   100</hex8>
			<hex8 id="21" mat="1">    40,    42,    43,    41,   101,   103,   104,   102</hex8>
<!-- ... 9 like lines cut -->
			<quad4 id="31" mat="2">   123,   125,   126,   124</quad4>
		</Elements>
		<ElementData>
			<element id="31">
				<thickness>0.01,0.01,0.01,0.01</thickness>
			</element>
		</ElementData>
	</Geometry>
	<Boundary>
		<fix>
			<node id="1" bc="y"/>
			<node id="62" bc="y"/>
		</fix>
		<fix>
			<node id="1" bc="x"/>
			<node id="62" bc="x"/>
		</fix>
		<fix>
			<node id="1" bc="y"/>
			<node id="2" bc="y"/>
			<node id="4" bc="y"/>
			<node id="6" bc="y"/>
			<node id="8" bc="y"/>
			<node id="10" bc="y"/>
			<node id="12" bc="y"/>
			<node id="14" bc="y"/>
			<node id="16" bc="y"/>
			<node id="18" bc="y"/>
			<node id="20" bc="y"/>
			<node id="22" bc="y"/>
			<node id="24" bc="y"/>
			<node id="26" bc="y"/>
			<node id="28" bc="y"/>
			<node id="30" bc="y"/>
			<node id="32" bc="y"/>
			<node id="34" bc="y"/>
			<node id="36" bc="y"/>
			<node id="38" bc="y"/>
<!-- ... 42 like lines cut -->
		</fix>
		<fix>
			<node id="1" bc="z"/>
			<node id="2" bc="z"/>
			<node id="3" bc="z"/>
			<node id="4" bc="z"/>
			<node id="5" bc="z"/>
			<node id="6" bc="z"/>
			<node id="7" bc="z"/>
			<node id="8" bc="z"/>
			<node id="9" bc="z"/>
			<node id="10" bc="z"/>
			<node id="11" bc="z"/>
			<node id="12" bc="z"/>
			<node id="13" bc="z"/>
			<node id="14" bc="z"/>
			<node id="15" bc="z"/>
			<node id="16" bc="z"/>
			<node id="17" bc="z"/>
			<node id="18" bc="z"/>
			<node id="19" bc="z"/>
			<node id="20" bc="z"/>
<!-- ... 41 like lines cut -->
		</fix>
		<fix>
			<node id="60" bc="p"/>
			<node id="61" bc="p"/>
			<node id="121" bc="p"/>
			<node id="122" bc="p"/>
		</fix>
		<prescribe>
			<node id="62" bc="z" lc="2">1</node>
			<node id="63" bc="z" lc="2">1</node>
			<node id="64" bc="z" lc="2">1</node>
			<node id="65" bc="z" lc="2">1</node>
			<node id="66" bc="z" lc="2">1</node>
			<node id="67" bc="z" lc="2">1</node>
			<node id="68" bc="z" lc="2">1</node>
			<node id="69" bc="z" lc="2">1</node>
			<node id="70" bc="z" lc="2">1</node>
			<node id="71" bc="z" lc="2">1</node>
			<node id="72" bc="z" lc="2">1</node>
			<node id="73" bc="z" lc="2">1</node>
			<node id="74" bc="z" lc="2">1</node>
			<node id="75" bc="z" lc="2">1</node>
			<node id="76" bc="z" lc="2">1</node>
			<node id="77" bc="z" lc="2">1</node>
			<node id="78" bc="z" lc="2">1</node>
			<node id="79" bc="z" lc="2">1</node>
			<node id="80" bc="z" lc="2">1</node>
			<node id="81" bc="z" lc="2">1</node>
<!-- ... 41 like lines cut -->
		</prescribe>
		<contact type="sliding-tension-compression">
			<laugon>0</laugon>
			<tolerance>0.2</tolerance>
			<gaptol>0</gaptol>
			<penalty>10000</penalty>
			<auto_penalty>1</auto_penalty>
			<two_pass>0</two_pass>
			<search_tol>0.01</search_tol>
			<symmetric_stiffness>0</symmetric_stiffness>
			<search_radius>1</search_radius>
			<seg_up>0</seg_up>
			<tension>1</tension>
			<minaug>0</minaug>
			<maxaug>10</maxaug>
			<surface type="master">
				<quad4 id="1">   123,   125,   126,   124</quad4>
			</surface>
			<surface type="slave">
				<quad4 id="1">     1,    62,    64,     3</quad4>
				<quad4 id="2">     5,     3,    64,    66</quad4>
				<quad4 id="3">     7,     5,    66,    68</quad4>
				<quad4 id="4">     9,     7,    68,    70</quad4>
				<quad4 id="5">    11,     9,    70,    72</quad4>
				<quad4 id="6">    13,    11,    72,    74</quad4>
				<quad4 id="7">    15,    13,    74,    76</quad4>
				<quad4 id="8">    17,    15,    76,    78</quad4>
				<quad4 id="9">    19,    17,    78,    80</quad4>
				<quad4 id="10">    21,    19,    80,    82</quad4>
				<quad4 id="11">    23,    21,    82,    84</quad4>
				<quad4 id="12">    25,    23,    84,    86</quad4>
				<quad4 id="13">    27,    25,    86,    88</quad4>
				<quad4 id="14">    29,    27,    88,    90</quad4>
				<quad4 id="15">    31,    29,    90,    92</quad4>
				<quad4 id="16">    33,    31,    92,    94</quad4>
				<quad4 id="17">    35,    33,    94,    96</quad4>
				<quad4 id="18">    37,    35,    96,    98</quad4>
				<quad4 id="19">    39,    37,    98,   100</quad4>
				<quad4 id="20">    41,    39,   100,   102</quad4>
<!-- ... 10 like lines cut -->
			</surface>
		</contact>
	</Boundary>
	<Constraints>
		<rigid_body mat="2">
			<trans_x type="fixed"></trans_x>
			<trans_y type="fixed"></trans_y>
			<trans_z type="fixed"></trans_z>
			<rot_x type="fixed"></rot_x>
			<rot_y type="fixed"></rot_y>
			<rot_z type="fixed"></rot_z>
		</rigid_body>
	</Constraints>
	<LoadData>
		<loadcurve id="1" type="step">
			<loadpoint>0,0</loadpoint>
			<loadpoint>1,0.1</loadpoint>
			<loadpoint>10,1</loadpoint>
			<loadpoint>100,10</loadpoint>
			<loadpoint>1000,100</loadpoint>
			<loadpoint>10000,1000</loadpoint>
		</loadcurve>
		<loadcurve id="2" type="step">
			<loadpoint>0,0</loadpoint>
			<loadpoint>1,-0.2</loadpoint>
		</loadcurve>
	</LoadData>
	<Output>
		<plotfile type="febio">
			<var type="contact gap"/>
			<var type="contact pressure"/>
			<var type="displacement"/>
			<var type="effective fluid pressure"/>
			<var type="fluid flux"/>
			<var type="relative volume"/>
			<var type="stress"/>
		</plotfile>
		<logfile>
          <element_data data="wx">30</element_data>
        </logfile>
	</Output>
</febio_spec>
