<?xml version="1.0" encoding="ISO-8859-1"?>
<!--
Problem Description:
	1D Permeation with prescribed upstream pressure and unclamped condition.
	This problem demonstrates how to prescribe boundary conditions for a permeation problem
	where the fluid pressure is prescribed upstream, but the solid displacement on the upstream
	surface is unconstrained.  The latter boundary condition is satisfied by prescribing a zero
	value for the effective traction on the upstream surface.

Main Features:
	Permeability
Secondary Features:
	Must point curve
Materials:
	Biphasic
	Neo-Hookean
Degrees of Freedom: 160
Results:
	Steps Completed: 28
	Equilibrium Iterations: 83
	Right Hand Evaluations: 111
	Siffness Reformations: 83
	Other:
		The maximum total fluid flux is 2.87e-4 at time t = 210.
Comments:
	
-->
<febio_spec version="1.2">
	<Module type="biphasic"/>
	<Control>
		<time_steps>10000</time_steps>
		<step_size>0.1</step_size>
		<max_refs>15</max_refs>
		<max_ups>0</max_ups>
		<dtol>0.001</dtol>
		<etol>0.01</etol>
		<rtol>0</rtol>
		<ptol>0.01</ptol>
		<lstol>0.9</lstol>
		<time_stepper>
			<dtmin>0.01</dtmin>
			<dtmax lc="1"></dtmax>
			<max_retries>5</max_retries>
			<opt_iter>10</opt_iter>
		</time_stepper>
		<symmetric_biphasic>0</symmetric_biphasic>
	</Control>
	<Material>
		<material id="1" name="Biphasic material" type="biphasic">
			<phi0>0.2</phi0>
			<solid type="neo-Hookean">
				<density>1</density>
				<E>1</E>
				<v>0</v>
			</solid>
			<permeability type="perm-const-iso">
				<perm>0.001</perm>
			</permeability>
		</material>
	</Material>
	<Geometry>
		<Nodes>
			<node id="1"> -5.0000000e-01, -5.0000000e-01,  0.0000000e+00</node>
			<node id="2"> -5.0000000e-01, -5.0000000e-01,  7.1619218e-03</node>
			<node id="3"> -5.0000000e-01, -5.0000000e-01,  1.7188612e-02</node>
			<node id="4"> -5.0000000e-01, -5.0000000e-01,  3.1225979e-02</node>
			<node id="5"> -5.0000000e-01, -5.0000000e-01,  5.0878292e-02</node>
			<node id="6"> -5.0000000e-01, -5.0000000e-01,  7.8391531e-02</node>
			<node id="7"> -5.0000000e-01, -5.0000000e-01,  1.1691007e-01</node>
			<node id="8"> -5.0000000e-01, -5.0000000e-01,  1.7083601e-01</node>
			<node id="9"> -5.0000000e-01, -5.0000000e-01,  2.4633234e-01</node>
			<node id="10"> -5.0000000e-01, -5.0000000e-01,  3.5202720e-01</node>
			<node id="11"> -5.0000000e-01, -5.0000000e-01,  5.0000000e-01</node>
			<node id="12"> -5.0000000e-01, -5.0000000e-01,  6.4797280e-01</node>
			<node id="13"> -5.0000000e-01, -5.0000000e-01,  7.5366766e-01</node>
			<node id="14"> -5.0000000e-01, -5.0000000e-01,  8.2916399e-01</node>
			<node id="15"> -5.0000000e-01, -5.0000000e-01,  8.8308993e-01</node>
			<node id="16"> -5.0000000e-01, -5.0000000e-01,  9.2160847e-01</node>
			<node id="17"> -5.0000000e-01, -5.0000000e-01,  9.4912171e-01</node>
			<node id="18"> -5.0000000e-01, -5.0000000e-01,  9.6877402e-01</node>
			<node id="19"> -5.0000000e-01, -5.0000000e-01,  9.8281139e-01</node>
			<node id="20"> -5.0000000e-01, -5.0000000e-01,  9.9283808e-01</node>
<!-- ... 64 like lines cut -->
		</Nodes>
		<Elements>
			<hex8 id="1" mat="1">     1,    43,    64,    22,     2,    44,    65,    23</hex8>
			<hex8 id="2" mat="1">     2,    44,    65,    23,     3,    45,    66,    24</hex8>
			<hex8 id="3" mat="1">     3,    45,    66,    24,     4,    46,    67,    25</hex8>
			<hex8 id="4" mat="1">     4,    46,    67,    25,     5,    47,    68,    26</hex8>
			<hex8 id="5" mat="1">     5,    47,    68,    26,     6,    48,    69,    27</hex8>
			<hex8 id="6" mat="1">     6,    48,    69,    27,     7,    49,    70,    28</hex8>
			<hex8 id="7" mat="1">     7,    49,    70,    28,     8,    50,    71,    29</hex8>
			<hex8 id="8" mat="1">     8,    50,    71,    29,     9,    51,    72,    30</hex8>
			<hex8 id="9" mat="1">     9,    51,    72,    30,    10,    52,    73,    31</hex8>
			<hex8 id="10" mat="1">    10,    52,    73,    31,    11,    53,    74,    32</hex8>
			<hex8 id="11" mat="1">    11,    53,    74,    32,    12,    54,    75,    33</hex8>
			<hex8 id="12" mat="1">    12,    54,    75,    33,    13,    55,    76,    34</hex8>
			<hex8 id="13" mat="1">    13,    55,    76,    34,    14,    56,    77,    35</hex8>
			<hex8 id="14" mat="1">    14,    56,    77,    35,    15,    57,    78,    36</hex8>
			<hex8 id="15" mat="1">    15,    57,    78,    36,    16,    58,    79,    37</hex8>
			<hex8 id="16" mat="1">    16,    58,    79,    37,    17,    59,    80,    38</hex8>
			<hex8 id="17" mat="1">    17,    59,    80,    38,    18,    60,    81,    39</hex8>
			<hex8 id="18" mat="1">    18,    60,    81,    39,    19,    61,    82,    40</hex8>
			<hex8 id="19" mat="1">    19,    61,    82,    40,    20,    62,    83,    41</hex8>
			<hex8 id="20" mat="1">    20,    62,    83,    41,    21,    63,    84,    42</hex8>
		</Elements>
	</Geometry>
	<Boundary>
		<fix>
			<node id="1" bc="x"/>
			<node id="2" bc="x"/>
			<node id="3" bc="x"/>
			<node id="4" bc="x"/>
			<node id="5" bc="x"/>
			<node id="6" bc="x"/>
			<node id="7" bc="x"/>
			<node id="8" bc="x"/>
			<node id="9" bc="x"/>
			<node id="10" bc="x"/>
			<node id="11" bc="x"/>
			<node id="12" bc="x"/>
			<node id="13" bc="x"/>
			<node id="14" bc="x"/>
			<node id="15" bc="x"/>
			<node id="16" bc="x"/>
			<node id="17" bc="x"/>
			<node id="18" bc="x"/>
			<node id="19" bc="x"/>
			<node id="20" bc="x"/>
<!-- ... 64 like lines cut -->
		</fix>
		<fix>
			<node id="1" bc="y"/>
			<node id="2" bc="y"/>
			<node id="3" bc="y"/>
			<node id="4" bc="y"/>
			<node id="5" bc="y"/>
			<node id="6" bc="y"/>
			<node id="7" bc="y"/>
			<node id="8" bc="y"/>
			<node id="9" bc="y"/>
			<node id="10" bc="y"/>
			<node id="11" bc="y"/>
			<node id="12" bc="y"/>
			<node id="13" bc="y"/>
			<node id="14" bc="y"/>
			<node id="15" bc="y"/>
			<node id="16" bc="y"/>
			<node id="17" bc="y"/>
			<node id="18" bc="y"/>
			<node id="19" bc="y"/>
			<node id="20" bc="y"/>
<!-- ... 64 like lines cut -->
		</fix>
		<fix>
			<node id="21" bc="p"/>
			<node id="42" bc="p"/>
			<node id="63" bc="p"/>
			<node id="84" bc="p"/>
		</fix>
		<fix>
			<node id="21" bc="z"/>
			<node id="42" bc="z"/>
			<node id="63" bc="z"/>
			<node id="84" bc="z"/>
		</fix>
		<prescribe>
			<node id="1" bc="p" lc="3">1</node>
			<node id="22" bc="p" lc="3">1</node>
			<node id="43" bc="p" lc="3">1</node>
			<node id="64" bc="p" lc="3">1</node>
		</prescribe>
	</Boundary>
	<Loads>
		<normal_traction type="nonlinear" traction="effective">
			<quad4 id="1" lc="2" scale="1">     1,    22,    64,    43</quad4>
		</normal_traction>
	</Loads>
	<LoadData>
		<loadcurve id="1" type="step">
			<loadpoint>0,0</loadpoint>
			<loadpoint>1,0.1</loadpoint>
			<loadpoint>1000,100</loadpoint>
		</loadcurve>
		<loadcurve id="2" type="smooth">
			<loadpoint>0,0</loadpoint>
			<loadpoint>1,0</loadpoint>
		</loadcurve>
		<loadcurve id="3">
			<loadpoint>0,0</loadpoint>
			<loadpoint>1,0.2</loadpoint>
		</loadcurve>
	</LoadData>
	<Output>
		<plotfile type="febio">
			<var type="displacement"/>
			<var type="effective fluid pressure"/>
			<var type="fluid flux"/>
			<var type="fluid pressure"/>
			<var type="relative volume"/>
			<var type="stress"/>
		</plotfile>
		<logfile>
			<element_data data="p">1</element_data>
		</logfile>
	</Output>
</febio_spec>
