<?xml version="1.0" encoding="ISO-8859-1"?>
<!--
Problem Description:
	1D biphasic contact between two bricks under displacement control
	(stress-relaxation).
Main Features:
	Biphasic contact
Secondary Features:
	Must point curve
Materials:
	Biphasic
	Holmes-Mow
Degrees of Freedom: 328
Results:
	Steps Completed: 84
	Equilibrium Iterations: 306
	Right Hand Evaluations: 409
	Siffness Reformations: 306
	Other:
		The maximum total fluid flux is 9.55e-5 at time t = 1000.
Comments:
	
-->
<febio_spec version="1.2">
	<Module type="biphasic"/>
	<Control>
		<time_steps>30000</time_steps>
		<step_size>0.1</step_size>
		<max_refs>15</max_refs>
		<max_ups>0</max_ups>
		<dtol>0.001</dtol>
		<etol>0.01</etol>
		<rtol>0</rtol>
		<ptol>0.01</ptol>
		<lstol>0.9</lstol>
		<time_stepper>
			<dtmin>0.01</dtmin>
			<dtmax lc="1"></dtmax>
			<max_retries>5</max_retries>
			<opt_iter>10</opt_iter>
		</time_stepper>
		<symmetric_biphasic>0</symmetric_biphasic>
	</Control>
	<Material>
		<material id="1" name="Biphasic material" type="biphasic">
			<phi0>0.2</phi0>
			<solid type="Holmes-Mow">
				<density>1</density>
				<E>1</E>
				<v>0</v>
				<beta>0.3</beta>
			</solid>
			<permeability type="perm-Holmes-Mow">
				<perm>0.001</perm>
				<M>2</M>
				<alpha>0</alpha>
			</permeability>
		</material>
	</Material>
	<Geometry>
		<Nodes>
			<node id="1"> -5.0000000e-01, -1.0000000e+00,  0.0000000e+00</node>
			<node id="2"> -5.0000000e-01, -1.0000000e+00,  1.0000000e+00</node>
			<node id="3"> -5.0000000e-01, -9.9283808e-01,  0.0000000e+00</node>
			<node id="4"> -5.0000000e-01, -9.9283808e-01,  1.0000000e+00</node>
			<node id="5"> -5.0000000e-01, -9.8281139e-01,  0.0000000e+00</node>
			<node id="6"> -5.0000000e-01, -9.8281139e-01,  1.0000000e+00</node>
			<node id="7"> -5.0000000e-01, -9.6877402e-01,  0.0000000e+00</node>
			<node id="8"> -5.0000000e-01, -9.6877402e-01,  1.0000000e+00</node>
			<node id="9"> -5.0000000e-01, -9.4912171e-01,  0.0000000e+00</node>
			<node id="10"> -5.0000000e-01, -9.4912171e-01,  1.0000000e+00</node>
			<node id="11"> -5.0000000e-01, -9.2160847e-01,  0.0000000e+00</node>
			<node id="12"> -5.0000000e-01, -9.2160847e-01,  1.0000000e+00</node>
			<node id="13"> -5.0000000e-01, -8.8308993e-01,  0.0000000e+00</node>
			<node id="14"> -5.0000000e-01, -8.8308993e-01,  1.0000000e+00</node>
			<node id="15"> -5.0000000e-01, -8.2916399e-01,  0.0000000e+00</node>
			<node id="16"> -5.0000000e-01, -8.2916399e-01,  1.0000000e+00</node>
			<node id="17"> -5.0000000e-01, -7.5366766e-01,  0.0000000e+00</node>
			<node id="18"> -5.0000000e-01, -7.5366766e-01,  1.0000000e+00</node>
			<node id="19"> -5.0000000e-01, -6.4797280e-01,  0.0000000e+00</node>
			<node id="20"> -5.0000000e-01, -6.4797280e-01,  1.0000000e+00</node>
<!-- ... 148 like lines cut -->
		</Nodes>
		<Elements>
			<hex8 id="1" mat="1">     1,    43,    45,     3,     2,    44,    46,     4</hex8>
			<hex8 id="2" mat="1">     3,    45,    47,     5,     4,    46,    48,     6</hex8>
			<hex8 id="3" mat="1">     5,    47,    49,     7,     6,    48,    50,     8</hex8>
			<hex8 id="4" mat="1">     7,    49,    51,     9,     8,    50,    52,    10</hex8>
			<hex8 id="5" mat="1">     9,    51,    53,    11,    10,    52,    54,    12</hex8>
			<hex8 id="6" mat="1">    11,    53,    55,    13,    12,    54,    56,    14</hex8>
			<hex8 id="7" mat="1">    13,    55,    57,    15,    14,    56,    58,    16</hex8>
			<hex8 id="8" mat="1">    15,    57,    59,    17,    16,    58,    60,    18</hex8>
			<hex8 id="9" mat="1">    17,    59,    61,    19,    18,    60,    62,    20</hex8>
			<hex8 id="10" mat="1">    19,    61,    63,    21,    20,    62,    64,    22</hex8>
			<hex8 id="11" mat="1">    21,    63,    65,    23,    22,    64,    66,    24</hex8>
			<hex8 id="12" mat="1">    23,    65,    67,    25,    24,    66,    68,    26</hex8>
			<hex8 id="13" mat="1">    25,    67,    69,    27,    26,    68,    70,    28</hex8>
			<hex8 id="14" mat="1">    27,    69,    71,    29,    28,    70,    72,    30</hex8>
			<hex8 id="15" mat="1">    29,    71,    73,    31,    30,    72,    74,    32</hex8>
			<hex8 id="16" mat="1">    31,    73,    75,    33,    32,    74,    76,    34</hex8>
			<hex8 id="17" mat="1">    33,    75,    77,    35,    34,    76,    78,    36</hex8>
			<hex8 id="18" mat="1">    35,    77,    79,    37,    36,    78,    80,    38</hex8>
			<hex8 id="19" mat="1">    37,    79,    81,    39,    38,    80,    82,    40</hex8>
			<hex8 id="20" mat="1">    39,    81,    83,    41,    40,    82,    84,    42</hex8>
<!-- ... 20 like lines cut -->
		</Elements>
	</Geometry>
	<Boundary>
		<fix>
			<node id="1" bc="x"/>
			<node id="2" bc="x"/>
			<node id="3" bc="x"/>
			<node id="4" bc="x"/>
			<node id="5" bc="x"/>
			<node id="6" bc="x"/>
			<node id="7" bc="x"/>
			<node id="8" bc="x"/>
			<node id="9" bc="x"/>
			<node id="10" bc="x"/>
			<node id="11" bc="x"/>
			<node id="12" bc="x"/>
			<node id="13" bc="x"/>
			<node id="14" bc="x"/>
			<node id="15" bc="x"/>
			<node id="16" bc="x"/>
			<node id="17" bc="x"/>
			<node id="18" bc="x"/>
			<node id="19" bc="x"/>
			<node id="20" bc="x"/>
<!-- ... 148 like lines cut -->
		</fix>
		<fix>
			<node id="1" bc="z"/>
			<node id="2" bc="z"/>
			<node id="3" bc="z"/>
			<node id="4" bc="z"/>
			<node id="5" bc="z"/>
			<node id="6" bc="z"/>
			<node id="7" bc="z"/>
			<node id="8" bc="z"/>
			<node id="9" bc="z"/>
			<node id="10" bc="z"/>
			<node id="11" bc="z"/>
			<node id="12" bc="z"/>
			<node id="13" bc="z"/>
			<node id="14" bc="z"/>
			<node id="15" bc="z"/>
			<node id="16" bc="z"/>
			<node id="17" bc="z"/>
			<node id="18" bc="z"/>
			<node id="19" bc="z"/>
			<node id="20" bc="z"/>
<!-- ... 148 like lines cut -->
		</fix>
		<fix>
			<node id="1" bc="y"/>
			<node id="2" bc="y"/>
			<node id="43" bc="y"/>
			<node id="44" bc="y"/>
		</fix>
		<fix>
			<node id="1" bc="p"/>
			<node id="2" bc="p"/>
			<node id="43" bc="p"/>
			<node id="44" bc="p"/>
		</fix>
		<prescribe>
			<node id="125" bc="y" lc="2">1</node>
			<node id="126" bc="y" lc="2">1</node>
			<node id="167" bc="y" lc="2">1</node>
			<node id="168" bc="y" lc="2">1</node>
		</prescribe>
		<contact type="sliding2">
			<laugon>1</laugon>
			<tolerance>0.2</tolerance>
			<penalty>1</penalty>
			<two_pass>1</two_pass>
			<auto_penalty>1</auto_penalty>
			<pressure_penalty>1</pressure_penalty>
			<symmetric_stiffness>0</symmetric_stiffness>
			<surface type="master">
				<quad4 id="1">    83,    41,    42,    84</quad4>
			</surface>
			<surface type="slave">
				<quad4 id="1">    85,   127,   128,    86</quad4>
			</surface>
		</contact>
	</Boundary>
	<LoadData>
		<loadcurve id="1" type="step">
			<loadpoint>0,0</loadpoint>
			<loadpoint>500,20</loadpoint>
			<loadpoint>1000,20</loadpoint>
			<loadpoint>3000,100</loadpoint>
		</loadcurve>
		<loadcurve id="2">
			<loadpoint>0,0</loadpoint>
			<loadpoint>500,-0.5</loadpoint>
		</loadcurve>
	</LoadData>
	<Output>
		<plotfile type="febio">
			<var type="contact gap"/>
			<var type="contact pressure"/>
			<var type="displacement"/>
			<var type="effective fluid pressure"/>
			<var type="fluid flux"/>
			<var type="relative volume"/>
			<var type="stress"/>
		</plotfile>
		<logfile>
			<element_data data="p">2</element_data>
		</logfile>
	</Output>
</febio_spec>
