<?xml version="1.0" encoding="ISO-8859-1"?>
<!--
Problem Description:
	2D biphasic contact between a semi-cylindrical block and a rectangular
	block under displacement control.
Main Features:
	Permeability
Secondary Features:
	Must point curve
Materials:
	Biphasic
	Holmes-Mow
Degrees of Freedom: 5508
Results:
	Steps Completed: 39
	Equilibrium Iterations: 330
	Right Hand Evaluations: 613
	Siffness Reformations: 332
	Other:
		The maximum total fluid flux is 1.5e-3 at time t = 20.
Comments:
	
-->
<febio_spec version="1.2">
	<Module type="biphasic"/>
	<Control>
		<time_steps>1000</time_steps>
		<step_size>1</step_size>
		<max_refs>25</max_refs>
		<max_ups>0</max_ups>
		<dtol>0.001</dtol>
		<etol>0.01</etol>
		<rtol>0</rtol>
		<lstol>0.9</lstol>
		<symmetric_biphasic>0</symmetric_biphasic>
		<time_stepper>
			<dtmin>0.1</dtmin>
			<dtmax lc="1"></dtmax>
			<max_retries>5</max_retries>
			<opt_iter>10</opt_iter>
		</time_stepper>
	</Control>
	<Material>
		<material id="1" name="Biphasic material" type="biphasic">
			<phi0>0.2</phi0>
			<solid name="Solid Matrix" type="Holmes-Mow">
				<density>1</density>
				<E>1</E>
				<v>0</v>
				<beta>2</beta>
			</solid>
			<permeability name="Fluid" type="perm-Holmes-Mow">
				<perm>0.001</perm>
				<M>2</M>
				<alpha>0</alpha>
			</permeability>
		</material>
	</Material>
	<Geometry>
		<Nodes>
			<node id="1">  0.0000000e+00, -1.0000000e+00,  0.0000000e+00</node>
			<node id="2">  0.0000000e+00, -1.0000000e+00,  1.0000000e+00</node>
			<node id="3">  0.0000000e+00, -9.8546289e-01,  0.0000000e+00</node>
			<node id="4">  0.0000000e+00, -9.8546289e-01,  1.0000000e+00</node>
			<node id="5">  0.0000000e+00, -9.6511093e-01,  0.0000000e+00</node>
			<node id="6">  0.0000000e+00, -9.6511093e-01,  1.0000000e+00</node>
			<node id="7">  0.0000000e+00, -9.3661819e-01,  0.0000000e+00</node>
			<node id="8">  0.0000000e+00, -9.3661819e-01,  1.0000000e+00</node>
			<node id="9">  0.0000000e+00, -8.9672835e-01,  0.0000000e+00</node>
			<node id="10">  0.0000000e+00, -8.9672835e-01,  1.0000000e+00</node>
			<node id="11">  0.0000000e+00, -8.4088258e-01,  0.0000000e+00</node>
			<node id="12">  0.0000000e+00, -8.4088258e-01,  1.0000000e+00</node>
			<node id="13">  0.0000000e+00, -7.6269850e-01,  0.0000000e+00</node>
			<node id="14">  0.0000000e+00, -7.6269850e-01,  1.0000000e+00</node>
			<node id="15">  0.0000000e+00, -6.5324079e-01,  0.0000000e+00</node>
			<node id="16">  0.0000000e+00, -6.5324079e-01,  1.0000000e+00</node>
			<node id="17">  0.0000000e+00, -5.0000000e-01,  0.0000000e+00</node>
			<node id="18">  0.0000000e+00, -5.0000000e-01,  1.0000000e+00</node>
			<node id="19">  0.0000000e+00, -3.4675921e-01,  0.0000000e+00</node>
			<node id="20">  0.0000000e+00, -3.4675921e-01,  1.0000000e+00</node>
<!-- ... 1904 like lines cut -->
		</Nodes>
		<Elements>
			<hex8 id="1" mat="1">     1,    35,    37,     3,     2,    36,    38,     4</hex8>
			<hex8 id="2" mat="1">     3,    37,    39,     5,     4,    38,    40,     6</hex8>
			<hex8 id="3" mat="1">     5,    39,    41,     7,     6,    40,    42,     8</hex8>
			<hex8 id="4" mat="1">     7,    41,    43,     9,     8,    42,    44,    10</hex8>
			<hex8 id="5" mat="1">     9,    43,    45,    11,    10,    44,    46,    12</hex8>
			<hex8 id="6" mat="1">    11,    45,    47,    13,    12,    46,    48,    14</hex8>
			<hex8 id="7" mat="1">    13,    47,    49,    15,    14,    48,    50,    16</hex8>
			<hex8 id="8" mat="1">    15,    49,    51,    17,    16,    50,    52,    18</hex8>
			<hex8 id="9" mat="1">    17,    51,    53,    19,    18,    52,    54,    20</hex8>
			<hex8 id="10" mat="1">    19,    53,    55,    21,    20,    54,    56,    22</hex8>
			<hex8 id="11" mat="1">    21,    55,    57,    23,    22,    56,    58,    24</hex8>
			<hex8 id="12" mat="1">    23,    57,    59,    25,    24,    58,    60,    26</hex8>
			<hex8 id="13" mat="1">    25,    59,    61,    27,    26,    60,    62,    28</hex8>
			<hex8 id="14" mat="1">    27,    61,    63,    29,    28,    62,    64,    30</hex8>
			<hex8 id="15" mat="1">    29,    63,    65,    31,    30,    64,    66,    32</hex8>
			<hex8 id="16" mat="1">    31,    65,    67,    33,    32,    66,    68,    34</hex8>
			<hex8 id="17" mat="1">    35,    69,    71,    37,    36,    70,    72,    38</hex8>
			<hex8 id="18" mat="1">    37,    71,    73,    39,    38,    72,    74,    40</hex8>
			<hex8 id="19" mat="1">    39,    73,    75,    41,    40,    74,    76,    42</hex8>
			<hex8 id="20" mat="1">    41,    75,    77,    43,    42,    76,    78,    44</hex8>
<!-- ... 492 like lines cut -->
			<penta6 id="513" mat="1">  1123,  1125,  1126,  1524,  1526,  1527</penta6>
			<penta6 id="514" mat="1">  1123,  1126,  1127,  1524,  1527,  1528</penta6>
			<penta6 id="515" mat="1">  1123,  1127,  1128,  1524,  1528,  1529</penta6>
			<penta6 id="516" mat="1">  1123,  1128,  1129,  1524,  1529,  1530</penta6>
			<penta6 id="517" mat="1">  1123,  1129,  1130,  1524,  1530,  1531</penta6>
			<penta6 id="518" mat="1">  1123,  1130,  1131,  1524,  1531,  1532</penta6>
			<penta6 id="519" mat="1">  1123,  1131,  1132,  1524,  1532,  1533</penta6>
			<penta6 id="520" mat="1">  1123,  1132,  1133,  1524,  1533,  1534</penta6>
			<penta6 id="521" mat="1">  1123,  1133,  1134,  1524,  1534,  1535</penta6>
			<penta6 id="522" mat="1">  1123,  1134,  1135,  1524,  1535,  1536</penta6>
			<penta6 id="523" mat="1">  1123,  1135,  1136,  1524,  1536,  1537</penta6>
			<penta6 id="524" mat="1">  1123,  1136,  1137,  1524,  1537,  1538</penta6>
			<penta6 id="525" mat="1">  1123,  1137,  1138,  1524,  1538,  1539</penta6>
			<penta6 id="526" mat="1">  1123,  1138,  1139,  1524,  1539,  1540</penta6>
			<penta6 id="527" mat="1">  1123,  1139,  1140,  1524,  1540,  1541</penta6>
			<penta6 id="528" mat="1">  1123,  1140,  1141,  1524,  1541,  1542</penta6>
			<penta6 id="529" mat="1">  1123,  1141,  1142,  1524,  1542,  1543</penta6>
			<penta6 id="530" mat="1">  1123,  1142,  1143,  1524,  1543,  1544</penta6>
			<penta6 id="531" mat="1">  1123,  1143,  1144,  1524,  1544,  1545</penta6>
			<penta6 id="532" mat="1">  1123,  1144,  1145,  1524,  1545,  1546</penta6>
<!-- ... 4 like lines cut -->
			<hex8 id="537" mat="1">  1125,  1150,  1151,  1126,  1526,  1551,  1552,  1527</hex8>
			<hex8 id="538" mat="1">  1126,  1151,  1152,  1127,  1527,  1552,  1553,  1528</hex8>
			<hex8 id="539" mat="1">  1127,  1152,  1153,  1128,  1528,  1553,  1554,  1529</hex8>
			<hex8 id="540" mat="1">  1128,  1153,  1154,  1129,  1529,  1554,  1555,  1530</hex8>
			<hex8 id="541" mat="1">  1129,  1154,  1155,  1130,  1530,  1555,  1556,  1531</hex8>
			<hex8 id="542" mat="1">  1130,  1155,  1156,  1131,  1531,  1556,  1557,  1532</hex8>
			<hex8 id="543" mat="1">  1131,  1156,  1157,  1132,  1532,  1557,  1558,  1533</hex8>
			<hex8 id="544" mat="1">  1132,  1157,  1158,  1133,  1533,  1558,  1559,  1534</hex8>
			<hex8 id="545" mat="1">  1133,  1158,  1159,  1134,  1534,  1559,  1560,  1535</hex8>
			<hex8 id="546" mat="1">  1134,  1159,  1160,  1135,  1535,  1560,  1561,  1536</hex8>
			<hex8 id="547" mat="1">  1135,  1160,  1161,  1136,  1536,  1561,  1562,  1537</hex8>
			<hex8 id="548" mat="1">  1136,  1161,  1162,  1137,  1537,  1562,  1563,  1538</hex8>
			<hex8 id="549" mat="1">  1137,  1162,  1163,  1138,  1538,  1563,  1564,  1539</hex8>
			<hex8 id="550" mat="1">  1138,  1163,  1164,  1139,  1539,  1564,  1565,  1540</hex8>
			<hex8 id="551" mat="1">  1139,  1164,  1165,  1140,  1540,  1565,  1566,  1541</hex8>
			<hex8 id="552" mat="1">  1140,  1165,  1166,  1141,  1541,  1566,  1567,  1542</hex8>
			<hex8 id="553" mat="1">  1141,  1166,  1167,  1142,  1542,  1567,  1568,  1543</hex8>
			<hex8 id="554" mat="1">  1142,  1167,  1168,  1143,  1543,  1568,  1569,  1544</hex8>
			<hex8 id="555" mat="1">  1143,  1168,  1169,  1144,  1544,  1569,  1570,  1545</hex8>
			<hex8 id="556" mat="1">  1144,  1169,  1170,  1145,  1545,  1570,  1571,  1546</hex8>
<!-- ... 340 like lines cut -->
		</Elements>
	</Geometry>
	<Boundary>
		<fix>
			<node id="1" bc="z"/>
			<node id="2" bc="z"/>
			<node id="3" bc="z"/>
			<node id="4" bc="z"/>
			<node id="5" bc="z"/>
			<node id="6" bc="z"/>
			<node id="7" bc="z"/>
			<node id="8" bc="z"/>
			<node id="9" bc="z"/>
			<node id="10" bc="z"/>
			<node id="11" bc="z"/>
			<node id="12" bc="z"/>
			<node id="13" bc="z"/>
			<node id="14" bc="z"/>
			<node id="15" bc="z"/>
			<node id="16" bc="z"/>
			<node id="17" bc="z"/>
			<node id="18" bc="z"/>
			<node id="19" bc="z"/>
			<node id="20" bc="z"/>
<!-- ... 1904 like lines cut -->
		</fix>
		<fix>
			<node id="1" bc="x"/>
			<node id="2" bc="x"/>
			<node id="3" bc="x"/>
			<node id="4" bc="x"/>
			<node id="5" bc="x"/>
			<node id="6" bc="x"/>
			<node id="7" bc="x"/>
			<node id="8" bc="x"/>
			<node id="9" bc="x"/>
			<node id="10" bc="x"/>
			<node id="11" bc="x"/>
			<node id="12" bc="x"/>
			<node id="13" bc="x"/>
			<node id="14" bc="x"/>
			<node id="15" bc="x"/>
			<node id="16" bc="x"/>
			<node id="17" bc="x"/>
			<node id="18" bc="x"/>
			<node id="19" bc="x"/>
			<node id="20" bc="x"/>
<!-- ... 144 like lines cut -->
		</fix>
		<fix>
			<node id="1" bc="y"/>
			<node id="2" bc="y"/>
			<node id="35" bc="y"/>
			<node id="36" bc="y"/>
			<node id="69" bc="y"/>
			<node id="70" bc="y"/>
			<node id="103" bc="y"/>
			<node id="104" bc="y"/>
			<node id="137" bc="y"/>
			<node id="138" bc="y"/>
			<node id="171" bc="y"/>
			<node id="172" bc="y"/>
			<node id="205" bc="y"/>
			<node id="206" bc="y"/>
			<node id="239" bc="y"/>
			<node id="240" bc="y"/>
			<node id="273" bc="y"/>
			<node id="274" bc="y"/>
			<node id="307" bc="y"/>
			<node id="308" bc="y"/>
<!-- ... 46 like lines cut -->
		</fix>
		<fix>
			<node id="1089" bc="p"/>
			<node id="1090" bc="p"/>
			<node id="1091" bc="p"/>
			<node id="1092" bc="p"/>
			<node id="1093" bc="p"/>
			<node id="1094" bc="p"/>
			<node id="1095" bc="p"/>
			<node id="1096" bc="p"/>
			<node id="1097" bc="p"/>
			<node id="1098" bc="p"/>
			<node id="1099" bc="p"/>
			<node id="1100" bc="p"/>
			<node id="1101" bc="p"/>
			<node id="1102" bc="p"/>
			<node id="1103" bc="p"/>
			<node id="1104" bc="p"/>
			<node id="1105" bc="p"/>
			<node id="1106" bc="p"/>
			<node id="1107" bc="p"/>
			<node id="1108" bc="p"/>
<!-- ... 14 like lines cut -->
		</fix>
		<prescribe>
			<node id="1123" bc="y" lc="2">1</node>
			<node id="1124" bc="y" lc="2">1</node>
			<node id="1149" bc="y" lc="2">1</node>
			<node id="1174" bc="y" lc="2">1</node>
			<node id="1199" bc="y" lc="2">1</node>
			<node id="1224" bc="y" lc="2">1</node>
			<node id="1249" bc="y" lc="2">1</node>
			<node id="1274" bc="y" lc="2">1</node>
			<node id="1299" bc="y" lc="2">1</node>
			<node id="1324" bc="y" lc="2">1</node>
			<node id="1349" bc="y" lc="2">1</node>
			<node id="1374" bc="y" lc="2">1</node>
			<node id="1399" bc="y" lc="2">1</node>
			<node id="1424" bc="y" lc="2">1</node>
			<node id="1449" bc="y" lc="2">1</node>
			<node id="1474" bc="y" lc="2">1</node>
			<node id="1499" bc="y" lc="2">1</node>
			<node id="1524" bc="y" lc="2">1</node>
			<node id="1525" bc="y" lc="2">1</node>
			<node id="1550" bc="y" lc="2">1</node>
<!-- ... 14 like lines cut -->
		</prescribe>
		<contact type="sliding2">
			<laugon>1</laugon>
			<tolerance>0.2</tolerance>
			<two_pass>1</two_pass>
			<auto_penalty>1</auto_penalty>
			<penalty>1</penalty>
			<pressure_penalty>1</pressure_penalty>
			<symmetric_stiffness>0</symmetric_stiffness>
			<surface type="master">
				<quad4 id="1">  1121,  1087,  1088,  1122</quad4>
				<quad4 id="2">  1087,  1053,  1054,  1088</quad4>
				<quad4 id="3">  1053,  1019,  1020,  1054</quad4>
				<quad4 id="4">  1019,   985,   986,  1020</quad4>
				<quad4 id="5">   985,   951,   952,   986</quad4>
				<quad4 id="6">   951,   917,   918,   952</quad4>
				<quad4 id="7">   917,   883,   884,   918</quad4>
				<quad4 id="8">   883,   849,   850,   884</quad4>
				<quad4 id="9">   849,   815,   816,   850</quad4>
				<quad4 id="10">   815,   781,   782,   816</quad4>
				<quad4 id="11">   781,   747,   748,   782</quad4>
				<quad4 id="12">   747,   713,   714,   748</quad4>
				<quad4 id="13">   713,   679,   680,   714</quad4>
				<quad4 id="14">   679,   645,   646,   680</quad4>
				<quad4 id="15">   645,   611,   612,   646</quad4>
				<quad4 id="16">   611,   577,   578,   612</quad4>
				<quad4 id="17">   577,   543,   544,   578</quad4>
				<quad4 id="18">   543,   509,   510,   544</quad4>
				<quad4 id="19">   509,   475,   476,   510</quad4>
				<quad4 id="20">   475,   441,   442,   476</quad4>
<!-- ... 12 like lines cut -->
			</surface>
			<surface type="slave">
				<quad4 id="1">  1500,  1501,  1902,  1901</quad4>
				<quad4 id="2">  1501,  1502,  1903,  1902</quad4>
				<quad4 id="3">  1502,  1503,  1904,  1903</quad4>
				<quad4 id="4">  1503,  1504,  1905,  1904</quad4>
				<quad4 id="5">  1504,  1505,  1906,  1905</quad4>
				<quad4 id="6">  1505,  1506,  1907,  1906</quad4>
				<quad4 id="7">  1506,  1507,  1908,  1907</quad4>
				<quad4 id="8">  1507,  1508,  1909,  1908</quad4>
				<quad4 id="9">  1508,  1509,  1910,  1909</quad4>
				<quad4 id="10">  1509,  1510,  1911,  1910</quad4>
				<quad4 id="11">  1510,  1511,  1912,  1911</quad4>
				<quad4 id="12">  1511,  1512,  1913,  1912</quad4>
				<quad4 id="13">  1512,  1513,  1914,  1913</quad4>
				<quad4 id="14">  1513,  1514,  1915,  1914</quad4>
				<quad4 id="15">  1514,  1515,  1916,  1915</quad4>
				<quad4 id="16">  1515,  1516,  1917,  1916</quad4>
				<quad4 id="17">  1516,  1517,  1918,  1917</quad4>
				<quad4 id="18">  1517,  1518,  1919,  1918</quad4>
				<quad4 id="19">  1518,  1519,  1920,  1919</quad4>
				<quad4 id="20">  1519,  1520,  1921,  1920</quad4>
<!-- ... 4 like lines cut -->
			</surface>
		</contact>
	</Boundary>
	<LoadData>
		<loadcurve id="1" type="step" extend="constant">
			<loadpoint>0,0</loadpoint>
			<loadpoint>20,1</loadpoint>
			<loadpoint>1000,100</loadpoint>
		</loadcurve>
		<loadcurve id="2" type="smooth" extend="constant">
			<loadpoint>0,0</loadpoint>
			<loadpoint>10,-0.5</loadpoint>
		</loadcurve>
	</LoadData>
	<Output>
	  	<plotfile type="febio">
		  <var type="displacement"/>
		  <var type="stress"/>
		  <var type="relative volume"/>
		  <var type="effective fluid pressure"/>
		  <var type="fluid flux"/>
		  <var type="contact pressure"/>
		  <var type="contact gap"/>
		</plotfile>
		<logfile>
			<element_data data="p">1</element_data>
		</logfile>
	</Output>
</febio_spec>
