<?xml version="1.0" encoding="ISO-8859-1"?>
<!--
Problem Description:
	Two biphasic bodies, one with hexahedral mesh and the other with tetrahedral mesh, tied at interface.
	The body with hexahedral mesh is much less permeable than the one with the tetrahedral mesh.
	A normal mixture traction is prescribed on the less permeable body and a transient response ensues.
Main Features:
	Tied biphasic contact interface
Secondary Features:
	Normal biphasic mixture traction
Materials:
	Biphasic with neo-Hookean solid and constant isotropic permeability
Degrees of Freedom: 6340
Results:
	Steps Completed: 62
	Equilibrium Iterations: 196
	Right Hand Evaluations: 258
	Siffness Reformations: 62
	Other:
		The maximum displacement fluid pressure is 0.231 at time t=9.
Comments:
	Continuity of fluid pressure is enforced across the tied contact interface.  Due to the significant
	disparity in permeability between the tied regions, large gradients in fluid pressure are
	observed across the interface.
-->
<febio_spec version="1.2">
	<Module type="biphasic"/>
	<Control>
		<time_steps>100000</time_steps>
		<step_size>1</step_size>
		<max_refs>15</max_refs>
		<max_ups>10</max_ups>
		<dtol>0.001</dtol>
		<etol>0.01</etol>
		<rtol>0</rtol>
		<ptol>0.01</ptol>
		<lstol>0.9</lstol>
		<time_stepper>
			<dtmin>0.01</dtmin>
			<dtmax lc="1"></dtmax>
			<max_retries>5</max_retries>
			<opt_iter>10</opt_iter>
		</time_stepper>
		<symmetric_biphasic>0</symmetric_biphasic>
	</Control>
	<Globals>
		<Constants>
			<T>0</T>
			<R>0</R>
			<Fc>0</Fc>
		</Constants>
	</Globals>
	<Material>
		<material id="1" name="Biphasic" type="biphasic">
			<phi0>0.2</phi0>
			<solid type="neo-Hookean">
				<density>1</density>
				<E>1</E>
				<v>0</v>
			</solid>
			<permeability type="perm-const-iso">
				<perm>0.001</perm>
			</permeability>
		</material>
		<material id="2" name="Biphasic permeable" type="biphasic">
			<phi0>0.1</phi0>
			<solid type="neo-Hookean">
				<density>1</density>
				<E>1</E>
				<v>0.3</v>
			</solid>
			<permeability type="perm-const-iso">
				<perm>1</perm>
			</permeability>
		</material>
	</Material>
	<Geometry>
		<Nodes>
			<node id="1"> -1.0000000e+01,  0.0000000e+00,  0.0000000e+00</node>
			<node id="2"> -1.0000000e+01,  0.0000000e+00,  1.0000000e+00</node>
			<node id="3"> -1.0000000e+01,  6.0145125e-02,  0.0000000e+00</node>
			<node id="4"> -1.0000000e+01,  6.0145125e-02,  1.0000000e+00</node>
			<node id="5"> -1.0000000e+01,  1.3532653e-01,  0.0000000e+00</node>
			<node id="6"> -1.0000000e+01,  1.3532653e-01,  1.0000000e+00</node>
			<node id="7"> -1.0000000e+01,  2.2930329e-01,  0.0000000e+00</node>
			<node id="8"> -1.0000000e+01,  2.2930329e-01,  1.0000000e+00</node>
			<node id="9"> -1.0000000e+01,  3.4677424e-01,  0.0000000e+00</node>
			<node id="10"> -1.0000000e+01,  3.4677424e-01,  1.0000000e+00</node>
			<node id="11"> -1.0000000e+01,  4.9361292e-01,  0.0000000e+00</node>
			<node id="12"> -1.0000000e+01,  4.9361292e-01,  1.0000000e+00</node>
			<node id="13"> -1.0000000e+01,  6.7716127e-01,  0.0000000e+00</node>
			<node id="14"> -1.0000000e+01,  6.7716127e-01,  1.0000000e+00</node>
			<node id="15"> -1.0000000e+01,  9.0659672e-01,  0.0000000e+00</node>
			<node id="16"> -1.0000000e+01,  9.0659672e-01,  1.0000000e+00</node>
			<node id="17"> -1.0000000e+01,  1.1933910e+00,  0.0000000e+00</node>
			<node id="18"> -1.0000000e+01,  1.1933910e+00,  1.0000000e+00</node>
			<node id="19"> -1.0000000e+01,  1.5518839e+00,  0.0000000e+00</node>
			<node id="20"> -1.0000000e+01,  1.5518839e+00,  1.0000000e+00</node>
<!-- ... 2164 like lines cut -->
		</Nodes>
		<Elements>
			<hex8 id="1" mat="1">     1,    43,    45,     3,     2,    44,    46,     4</hex8>
			<hex8 id="2" mat="1">     3,    45,    47,     5,     4,    46,    48,     6</hex8>
			<hex8 id="3" mat="1">     5,    47,    49,     7,     6,    48,    50,     8</hex8>
			<hex8 id="4" mat="1">     7,    49,    51,     9,     8,    50,    52,    10</hex8>
			<hex8 id="5" mat="1">     9,    51,    53,    11,    10,    52,    54,    12</hex8>
			<hex8 id="6" mat="1">    11,    53,    55,    13,    12,    54,    56,    14</hex8>
			<hex8 id="7" mat="1">    13,    55,    57,    15,    14,    56,    58,    16</hex8>
			<hex8 id="8" mat="1">    15,    57,    59,    17,    16,    58,    60,    18</hex8>
			<hex8 id="9" mat="1">    17,    59,    61,    19,    18,    60,    62,    20</hex8>
			<hex8 id="10" mat="1">    19,    61,    63,    21,    20,    62,    64,    22</hex8>
			<hex8 id="11" mat="1">    21,    63,    65,    23,    22,    64,    66,    24</hex8>
			<hex8 id="12" mat="1">    23,    65,    67,    25,    24,    66,    68,    26</hex8>
			<hex8 id="13" mat="1">    25,    67,    69,    27,    26,    68,    70,    28</hex8>
			<hex8 id="14" mat="1">    27,    69,    71,    29,    28,    70,    72,    30</hex8>
			<hex8 id="15" mat="1">    29,    71,    73,    31,    30,    72,    74,    32</hex8>
			<hex8 id="16" mat="1">    31,    73,    75,    33,    32,    74,    76,    34</hex8>
			<hex8 id="17" mat="1">    33,    75,    77,    35,    34,    76,    78,    36</hex8>
			<hex8 id="18" mat="1">    35,    77,    79,    37,    36,    78,    80,    38</hex8>
			<hex8 id="19" mat="1">    37,    79,    81,    39,    38,    80,    82,    40</hex8>
			<hex8 id="20" mat="1">    39,    81,    83,    41,    40,    82,    84,    42</hex8>
<!-- ... 780 like lines cut -->
			<tet4 id="801" mat="2">  1745,  1747,  1725,  1748</tet4>
			<tet4 id="802" mat="2">  1723,  1745,  1725,  1748</tet4>
			<tet4 id="803" mat="2">  1723,  1748,  1725,  1726</tet4>
			<tet4 id="804" mat="2">  1745,  1746,  1748,  1723</tet4>
			<tet4 id="805" mat="2">  1724,  1726,  1746,  1723</tet4>
			<tet4 id="806" mat="2">  1746,  1726,  1748,  1723</tet4>
			<tet4 id="807" mat="2">  1747,  1749,  1727,  1750</tet4>
			<tet4 id="808" mat="2">  1725,  1747,  1727,  1750</tet4>
			<tet4 id="809" mat="2">  1725,  1750,  1727,  1728</tet4>
			<tet4 id="810" mat="2">  1747,  1748,  1750,  1725</tet4>
			<tet4 id="811" mat="2">  1726,  1728,  1748,  1725</tet4>
			<tet4 id="812" mat="2">  1748,  1728,  1750,  1725</tet4>
			<tet4 id="813" mat="2">  1749,  1751,  1729,  1752</tet4>
			<tet4 id="814" mat="2">  1727,  1749,  1729,  1752</tet4>
			<tet4 id="815" mat="2">  1727,  1752,  1729,  1730</tet4>
			<tet4 id="816" mat="2">  1749,  1750,  1752,  1727</tet4>
			<tet4 id="817" mat="2">  1728,  1730,  1750,  1727</tet4>
			<tet4 id="818" mat="2">  1750,  1730,  1752,  1727</tet4>
			<tet4 id="819" mat="2">  1751,  1753,  1731,  1754</tet4>
			<tet4 id="820" mat="2">  1729,  1751,  1731,  1754</tet4>
<!-- ... 1180 like lines cut -->
		</Elements>
	</Geometry>
	<Boundary>
		<fix>
			<node id="1" bc="z"/>
			<node id="2" bc="z"/>
			<node id="3" bc="z"/>
			<node id="4" bc="z"/>
			<node id="5" bc="z"/>
			<node id="6" bc="z"/>
			<node id="7" bc="z"/>
			<node id="8" bc="z"/>
			<node id="9" bc="z"/>
			<node id="10" bc="z"/>
			<node id="11" bc="z"/>
			<node id="12" bc="z"/>
			<node id="13" bc="z"/>
			<node id="14" bc="z"/>
			<node id="15" bc="z"/>
			<node id="16" bc="z"/>
			<node id="17" bc="z"/>
			<node id="18" bc="z"/>
			<node id="19" bc="z"/>
			<node id="20" bc="z"/>
<!-- ... 4348 like lines cut -->
		</fix>
		<fix>
			<node id="1723" bc="xy"/>
			<node id="1724" bc="xy"/>
			<node id="1745" bc="xy"/>
			<node id="1746" bc="xy"/>
			<node id="1767" bc="xy"/>
			<node id="1768" bc="xy"/>
			<node id="1789" bc="xy"/>
			<node id="1790" bc="xy"/>
			<node id="1811" bc="xy"/>
			<node id="1812" bc="xy"/>
			<node id="1833" bc="xy"/>
			<node id="1834" bc="xy"/>
			<node id="1855" bc="xy"/>
			<node id="1856" bc="xy"/>
			<node id="1877" bc="xy"/>
			<node id="1878" bc="xy"/>
			<node id="1899" bc="xy"/>
			<node id="1900" bc="xy"/>
			<node id="1921" bc="xy"/>
			<node id="1922" bc="xy"/>
<!-- ... 22 like lines cut -->
		</fix>
		<fix>
			<node id="1" bc="p"/>
			<node id="2" bc="p"/>
			<node id="3" bc="p"/>
			<node id="4" bc="p"/>
			<node id="5" bc="p"/>
			<node id="6" bc="p"/>
			<node id="7" bc="p"/>
			<node id="8" bc="p"/>
			<node id="9" bc="p"/>
			<node id="10" bc="p"/>
			<node id="11" bc="p"/>
			<node id="12" bc="p"/>
			<node id="13" bc="p"/>
			<node id="14" bc="p"/>
			<node id="15" bc="p"/>
			<node id="16" bc="p"/>
			<node id="17" bc="p"/>
			<node id="18" bc="p"/>
			<node id="19" bc="p"/>
			<node id="20" bc="p"/>
<!-- ... 108 like lines cut -->
		</fix>
		<contact type="tied-biphasic">
			<laugon>0</laugon>
			<tolerance>0.2</tolerance>
			<penalty>10</penalty>
			<two_pass>1</two_pass>
			<auto_penalty>1</auto_penalty>
			<pressure_penalty>10</pressure_penalty>
			<symmetric_stiffness>0</symmetric_stiffness>
			<surface type="master" name="Surface02 biphasic permeable">
				<tri3 id="1">  2183,  2161,  2184</tri3>
				<tri3 id="2">  2161,  2162,  2184</tri3>
				<tri3 id="3">  2161,  2139,  2162</tri3>
				<tri3 id="4">  2139,  2140,  2162</tri3>
				<tri3 id="5">  2139,  2117,  2140</tri3>
				<tri3 id="6">  2117,  2118,  2140</tri3>
				<tri3 id="7">  2117,  2095,  2118</tri3>
				<tri3 id="8">  2095,  2096,  2118</tri3>
				<tri3 id="9">  2095,  2073,  2096</tri3>
				<tri3 id="10">  2073,  2074,  2096</tri3>
				<tri3 id="11">  2073,  2051,  2074</tri3>
				<tri3 id="12">  2051,  2052,  2074</tri3>
				<tri3 id="13">  2051,  2029,  2052</tri3>
				<tri3 id="14">  2029,  2030,  2052</tri3>
				<tri3 id="15">  2029,  2007,  2030</tri3>
				<tri3 id="16">  2007,  2008,  2030</tri3>
				<tri3 id="17">  2007,  1985,  2008</tri3>
				<tri3 id="18">  1985,  1986,  2008</tri3>
				<tri3 id="19">  1985,  1963,  1986</tri3>
				<tri3 id="20">  1963,  1964,  1986</tri3>
<!-- ... 20 like lines cut -->
			</surface>
			<surface type="slave" name="Surface01 biphasic">
				<quad4 id="1">     1,    43,    44,     2</quad4>
				<quad4 id="2">    43,    85,    86,    44</quad4>
				<quad4 id="3">    85,   127,   128,    86</quad4>
				<quad4 id="4">   127,   169,   170,   128</quad4>
				<quad4 id="5">   169,   211,   212,   170</quad4>
				<quad4 id="6">   211,   253,   254,   212</quad4>
				<quad4 id="7">   253,   295,   296,   254</quad4>
				<quad4 id="8">   295,   337,   338,   296</quad4>
				<quad4 id="9">   337,   379,   380,   338</quad4>
				<quad4 id="10">   379,   421,   422,   380</quad4>
				<quad4 id="11">   421,   463,   464,   422</quad4>
				<quad4 id="12">   463,   505,   506,   464</quad4>
				<quad4 id="13">   505,   547,   548,   506</quad4>
				<quad4 id="14">   547,   589,   590,   548</quad4>
				<quad4 id="15">   589,   631,   632,   590</quad4>
				<quad4 id="16">   631,   673,   674,   632</quad4>
				<quad4 id="17">   673,   715,   716,   674</quad4>
				<quad4 id="18">   715,   757,   758,   716</quad4>
				<quad4 id="19">   757,   799,   800,   758</quad4>
				<quad4 id="20">   799,   841,   842,   800</quad4>
<!-- ... 20 like lines cut -->
			</surface>
		</contact>
	</Boundary>
	<Loads>
		<normal_traction type="nonlinear" traction="mixture">
			<quad4 id="1" lc="2" scale="1">  1721,  1679,  1680,  1722</quad4>
			<quad4 id="2" lc="2" scale="1">  1679,  1637,  1638,  1680</quad4>
			<quad4 id="3" lc="2" scale="1">  1637,  1595,  1596,  1638</quad4>
			<quad4 id="4" lc="2" scale="1">  1595,  1553,  1554,  1596</quad4>
			<quad4 id="5" lc="2" scale="1">  1553,  1511,  1512,  1554</quad4>
			<quad4 id="6" lc="2" scale="1">  1511,  1469,  1470,  1512</quad4>
			<quad4 id="7" lc="2" scale="1">  1469,  1427,  1428,  1470</quad4>
			<quad4 id="8" lc="2" scale="1">  1427,  1385,  1386,  1428</quad4>
			<quad4 id="9" lc="2" scale="1">  1385,  1343,  1344,  1386</quad4>
			<quad4 id="10" lc="2" scale="1">  1343,  1301,  1302,  1344</quad4>
			<quad4 id="11" lc="2" scale="1">  1301,  1259,  1260,  1302</quad4>
			<quad4 id="12" lc="2" scale="1">  1259,  1217,  1218,  1260</quad4>
			<quad4 id="13" lc="2" scale="1">  1217,  1175,  1176,  1218</quad4>
			<quad4 id="14" lc="2" scale="1">  1175,  1133,  1134,  1176</quad4>
			<quad4 id="15" lc="2" scale="1">  1133,  1091,  1092,  1134</quad4>
			<quad4 id="16" lc="2" scale="1">  1091,  1049,  1050,  1092</quad4>
			<quad4 id="17" lc="2" scale="1">  1049,  1007,  1008,  1050</quad4>
			<quad4 id="18" lc="2" scale="1">  1007,   965,   966,  1008</quad4>
			<quad4 id="19" lc="2" scale="1">   965,   923,   924,   966</quad4>
			<quad4 id="20" lc="2" scale="1">   923,   881,   882,   924</quad4>
<!-- ... 20 like lines cut -->
		</normal_traction>
	</Loads>
	<LoadData>
		<loadcurve id="1" type="step">
			<loadpoint>0,0</loadpoint>
			<loadpoint>10,1</loadpoint>
			<loadpoint>100,10</loadpoint>
			<loadpoint>1000,100</loadpoint>
			<loadpoint>10000,1000</loadpoint>
			<loadpoint>100000,10000</loadpoint>
		</loadcurve>
		<loadcurve id="2" type="smooth">
			<loadpoint>0,0</loadpoint>
			<loadpoint>10,-0.3</loadpoint>
		</loadcurve>
	</LoadData>
	<Output>
		<plotfile type="febio">
			<var type="displacement"/>
			<var type="effective fluid pressure"/>
			<var type="fluid flux"/>
			<var type="fluid pressure"/>
			<var type="relative volume"/>
			<var type="stress"/>
		</plotfile>
	
		<logfile>
			<element_data data="p">1</element_data>
		</logfile>
	</Output>
</febio_spec>
