<?xml version="1.0" encoding="ISO-8859-1"?>
<!--
Problem Description:
	A biphasic block is attached to an elastic foundation. A
	mixture traction is prescribed on the biphasic surface.
Main Features:
	Interfacing biphasic and elastic materials.
Secondary Features:
	Nonlinear mixture traction.
Materials:
	Neo-Hookean
	Biphasic
	Constant permeability
Degrees of Freedom: 3118
Results:
	Steps Completed: 10
	Equilibrium Iterations: 30
	Right Hand Evaluations: 40
	Siffness Reformations: 30
	Other:
		The effective fluid pressure for node 1002 at time t=1 is 0.2186
Comments:
	
-->
<febio_spec version="1.2">
	<Module type="biphasic"/>
	<Control>
		<time_steps>10</time_steps>
		<step_size>0.1</step_size>
		<max_refs>15</max_refs>
		<max_ups>0</max_ups>
		<dtol>0.001</dtol>
		<etol>0.01</etol>
		<rtol>0</rtol>
		<ptol>0.01</ptol>
		<lstol>0.9</lstol>
		<time_stepper>
			<dtmin>0.01</dtmin>
			<dtmax>0.1</dtmax>
			<max_retries>5</max_retries>
			<opt_iter>10</opt_iter>
		</time_stepper>
		<symmetric_biphasic>0</symmetric_biphasic>
	</Control>
	<Globals>
		<Constants>
			<T>0</T>
			<R>0</R>
			<Fc>0</Fc>
		</Constants>
	</Globals>
	<Material>
		<material id="1" name="Elastic" type="neo-Hookean">
			<density>1</density>
			<E>5</E>
			<v>0.3</v>
		</material>
		<material id="2" name="Biphasic" type="biphasic">
			<phi0>0.2</phi0>
			<solid type="neo-Hookean">
				<density>1</density>
				<E>1</E>
				<v>0</v>
			</solid>
			<permeability type="perm-const-iso">
				<perm>0.001</perm>
			</permeability>
		</material>
	</Material>
	<Geometry>
		<Nodes>
			<node id="1"> -1.5000000e+00, -1.0000000e+00,  0.0000000e+00</node>
			<node id="2"> -1.5000000e+00, -1.0000000e+00,  1.0000000e+00</node>
			<node id="3"> -1.5000000e+00, -9.0000000e-01,  0.0000000e+00</node>
			<node id="4"> -1.5000000e+00, -9.0000000e-01,  1.0000000e+00</node>
			<node id="5"> -1.5000000e+00, -8.0000000e-01,  0.0000000e+00</node>
			<node id="6"> -1.5000000e+00, -8.0000000e-01,  1.0000000e+00</node>
			<node id="7"> -1.5000000e+00, -7.0000000e-01,  0.0000000e+00</node>
			<node id="8"> -1.5000000e+00, -7.0000000e-01,  1.0000000e+00</node>
			<node id="9"> -1.5000000e+00, -6.0000000e-01,  0.0000000e+00</node>
			<node id="10"> -1.5000000e+00, -6.0000000e-01,  1.0000000e+00</node>
			<node id="11"> -1.5000000e+00, -5.0000000e-01,  0.0000000e+00</node>
			<node id="12"> -1.5000000e+00, -5.0000000e-01,  1.0000000e+00</node>
			<node id="13"> -1.5000000e+00, -4.0000000e-01,  0.0000000e+00</node>
			<node id="14"> -1.5000000e+00, -4.0000000e-01,  1.0000000e+00</node>
			<node id="15"> -1.5000000e+00, -3.0000000e-01,  0.0000000e+00</node>
			<node id="16"> -1.5000000e+00, -3.0000000e-01,  1.0000000e+00</node>
			<node id="17"> -1.5000000e+00, -2.0000000e-01,  0.0000000e+00</node>
			<node id="18"> -1.5000000e+00, -2.0000000e-01,  1.0000000e+00</node>
			<node id="19"> -1.5000000e+00, -1.0000000e-01,  0.0000000e+00</node>
			<node id="20"> -1.5000000e+00, -1.0000000e-01,  1.0000000e+00</node>
<!-- ... 1282 like lines cut -->
		</Nodes>
		<Elements>
			<hex8 id="1" mat="1">     1,    23,    25,     3,     2,    24,    26,     4</hex8>
			<hex8 id="2" mat="1">     3,    25,    27,     5,     4,    26,    28,     6</hex8>
			<hex8 id="3" mat="1">     5,    27,    29,     7,     6,    28,    30,     8</hex8>
			<hex8 id="4" mat="1">     7,    29,    31,     9,     8,    30,    32,    10</hex8>
			<hex8 id="5" mat="1">     9,    31,    33,    11,    10,    32,    34,    12</hex8>
			<hex8 id="6" mat="1">    11,    33,    35,    13,    12,    34,    36,    14</hex8>
			<hex8 id="7" mat="1">    13,    35,    37,    15,    14,    36,    38,    16</hex8>
			<hex8 id="8" mat="1">    15,    37,    39,    17,    16,    38,    40,    18</hex8>
			<hex8 id="9" mat="1">    17,    39,    41,    19,    18,    40,    42,    20</hex8>
			<hex8 id="10" mat="1">    19,    41,    43,    21,    20,    42,    44,    22</hex8>
			<hex8 id="11" mat="1">    23,    45,    47,    25,    24,    46,    48,    26</hex8>
			<hex8 id="12" mat="1">    25,    47,    49,    27,    26,    48,    50,    28</hex8>
			<hex8 id="13" mat="1">    27,    49,    51,    29,    28,    50,    52,    30</hex8>
			<hex8 id="14" mat="1">    29,    51,    53,    31,    30,    52,    54,    32</hex8>
			<hex8 id="15" mat="1">    31,    53,    55,    33,    32,    54,    56,    34</hex8>
			<hex8 id="16" mat="1">    33,    55,    57,    35,    34,    56,    58,    36</hex8>
			<hex8 id="17" mat="1">    35,    57,    59,    37,    36,    58,    60,    38</hex8>
			<hex8 id="18" mat="1">    37,    59,    61,    39,    38,    60,    62,    40</hex8>
			<hex8 id="19" mat="1">    39,    61,    63,    41,    40,    62,    64,    42</hex8>
			<hex8 id="20" mat="1">    41,    63,    65,    43,    42,    64,    66,    44</hex8>
<!-- ... 580 like lines cut -->
		</Elements>
	</Geometry>
	<Boundary>
		<fix>
			<node id="1" bc="xyz"/>
			<node id="2" bc="xyz"/>
			<node id="23" bc="xyz"/>
			<node id="24" bc="xyz"/>
			<node id="45" bc="xyz"/>
			<node id="46" bc="xyz"/>
			<node id="67" bc="xyz"/>
			<node id="68" bc="xyz"/>
			<node id="89" bc="xyz"/>
			<node id="90" bc="xyz"/>
			<node id="111" bc="xyz"/>
			<node id="112" bc="xyz"/>
			<node id="133" bc="xyz"/>
			<node id="134" bc="xyz"/>
			<node id="155" bc="xyz"/>
			<node id="156" bc="xyz"/>
			<node id="177" bc="xyz"/>
			<node id="178" bc="xyz"/>
			<node id="199" bc="xyz"/>
			<node id="200" bc="xyz"/>
<!-- ... 42 like lines cut -->
		</fix>
		<fix>
			<node id="21" bc="p"/>
			<node id="22" bc="p"/>
			<node id="681" bc="p"/>
			<node id="682" bc="p"/>
			<node id="683" bc="p"/>
			<node id="684" bc="p"/>
			<node id="685" bc="p"/>
			<node id="686" bc="p"/>
			<node id="687" bc="p"/>
			<node id="688" bc="p"/>
			<node id="689" bc="p"/>
			<node id="690" bc="p"/>
			<node id="691" bc="p"/>
			<node id="692" bc="p"/>
			<node id="693" bc="p"/>
			<node id="694" bc="p"/>
			<node id="695" bc="p"/>
			<node id="696" bc="p"/>
			<node id="697" bc="p"/>
			<node id="698" bc="p"/>
<!-- ... 24 like lines cut -->
		</fix>
		<fix>
			<node id="1" bc="z"/>
			<node id="2" bc="z"/>
			<node id="3" bc="z"/>
			<node id="4" bc="z"/>
			<node id="5" bc="z"/>
			<node id="6" bc="z"/>
			<node id="7" bc="z"/>
			<node id="8" bc="z"/>
			<node id="9" bc="z"/>
			<node id="10" bc="z"/>
			<node id="11" bc="z"/>
			<node id="12" bc="z"/>
			<node id="13" bc="z"/>
			<node id="14" bc="z"/>
			<node id="15" bc="z"/>
			<node id="16" bc="z"/>
			<node id="17" bc="z"/>
			<node id="18" bc="z"/>
			<node id="19" bc="z"/>
			<node id="20" bc="z"/>
<!-- ... 5188 like lines cut -->
		</fix>
	</Boundary>
	<Loads>
		<normal_traction type="nonlinear" traction="mixture">
			<quad4 id="1" lc="1" scale="1">   721,   701,   702,   722</quad4>
			<quad4 id="2" lc="1" scale="1">   741,   721,   722,   742</quad4>
			<quad4 id="3" lc="1" scale="1">   761,   741,   742,   762</quad4>
			<quad4 id="4" lc="1" scale="1">   781,   761,   762,   782</quad4>
			<quad4 id="5" lc="1" scale="1">   801,   781,   782,   802</quad4>
			<quad4 id="6" lc="1" scale="1">   821,   801,   802,   822</quad4>
			<quad4 id="7" lc="1" scale="1">   841,   821,   822,   842</quad4>
			<quad4 id="8" lc="1" scale="1">   861,   841,   842,   862</quad4>
			<quad4 id="9" lc="1" scale="1">   881,   861,   862,   882</quad4>
			<quad4 id="10" lc="1" scale="1">   901,   881,   882,   902</quad4>
			<quad4 id="11" lc="1" scale="1">   921,   901,   902,   922</quad4>
			<quad4 id="12" lc="1" scale="1">   941,   921,   922,   942</quad4>
			<quad4 id="13" lc="1" scale="1">   961,   941,   942,   962</quad4>
			<quad4 id="14" lc="1" scale="1">   981,   961,   962,   982</quad4>
			<quad4 id="15" lc="1" scale="1">  1001,   981,   982,  1002</quad4>
			<quad4 id="16" lc="1" scale="1">  1021,  1001,  1002,  1022</quad4>
			<quad4 id="17" lc="1" scale="1">  1041,  1021,  1022,  1042</quad4>
			<quad4 id="18" lc="1" scale="1">  1061,  1041,  1042,  1062</quad4>
			<quad4 id="19" lc="1" scale="1">  1081,  1061,  1062,  1082</quad4>
			<quad4 id="20" lc="1" scale="1">  1101,  1081,  1082,  1102</quad4>
<!-- ... 10 like lines cut -->
		</normal_traction>
	</Loads>
	<LoadData>
		<loadcurve id="1" type="smooth">
			<loadpoint>0,0</loadpoint>
			<loadpoint>1,-0.5</loadpoint>
		</loadcurve>
	</LoadData>
	<Output>
		<plotfile type="febio">
			<var type="displacement"/>
			<var type="effective fluid pressure"/>
			<var type="fluid flux"/>
			<var type="fluid pressure"/>
			<var type="relative volume"/>
			<var type="stress"/>
		</plotfile>
		<logfile>
			<element_data data="p">331</element_data>
		</logfile>
	</Output>
</febio_spec>
