<?xml version="1.0" encoding="ISO-8859-1"?>
<!--
Problem Description:
	1D biphasic contact between two bricks under load control (creep), using a rigid interface.
Main Features:
	Biphasic contact under load control using a rigid interface
	Permeability
Secondary Features:
	Must point curve
Materials:
	Biphasic
	neo-Hookean
Degrees of Freedom: 325
Results:
	Steps Completed: 65
	Equilibrium Iterations: 191
	Right Hand Evaluations: 256
	Siffness Reformations: 191
	Other:
		The creep displacement at t=1e4 is -0.3593.
Comments:
	
-->
<febio_spec version="1.2">
	<Module type="biphasic"/>
	<Control>
		<time_steps>100000</time_steps>
		<step_size>0.1</step_size>
		<max_refs>15</max_refs>
		<max_ups>0</max_ups>
		<dtol>0.001</dtol>
		<etol>0.01</etol>
		<rtol>0</rtol>
		<ptol>0.01</ptol>
		<lstol>0.9</lstol>
		<time_stepper>
			<dtmin>0.01</dtmin>
			<dtmax lc="1"></dtmax>
			<max_retries>5</max_retries>
			<opt_iter>10</opt_iter>
		</time_stepper>
		<symmetric_biphasic>0</symmetric_biphasic>
	</Control>
	<Globals>
		<Constants>
			<T>293</T>
			<R>8.314e-06</R>
			<Fc>9.65e-05</Fc>
		</Constants>
	</Globals>
	<Material>
		<material id="1" name="Biphasic top" type="biphasic">
			<phi0>0.2</phi0>
			<solid type="neo-Hookean">
				<density>1</density>
				<E>1</E>
				<v>0</v>
			</solid>
			<permeability type="perm-const-iso">
				<perm>0.001</perm>
			</permeability>
		</material>
		<material id="2" name="Biphasic bottom" type="biphasic">
			<phi0>0.2</phi0>
			<solid type="neo-Hookean">
				<density>1</density>
				<E>1</E>
				<v>0</v>
			</solid>
			<permeability type="perm-const-iso">
				<perm>0.001</perm>
			</permeability>
		</material>
		<material id="3" name="Top foundation" type="rigid body">
			<density>1</density>
			<center_of_mass>0,0,2</center_of_mass>
		</material>
	</Material>
	<Geometry>
		<Nodes>
			<node id="1"> -5.0000000e-01, -5.0000000e-01,  0.0000000e+00</node>
			<node id="2"> -5.0000000e-01, -5.0000000e-01,  1.5036281e-02</node>
			<node id="3"> -5.0000000e-01, -5.0000000e-01,  3.3831633e-02</node>
			<node id="4"> -5.0000000e-01, -5.0000000e-01,  5.7325822e-02</node>
			<node id="5"> -5.0000000e-01, -5.0000000e-01,  8.6693559e-02</node>
			<node id="6"> -5.0000000e-01, -5.0000000e-01,  1.2340323e-01</node>
			<node id="7"> -5.0000000e-01, -5.0000000e-01,  1.6929032e-01</node>
			<node id="8"> -5.0000000e-01, -5.0000000e-01,  2.2664918e-01</node>
			<node id="9"> -5.0000000e-01, -5.0000000e-01,  2.9834776e-01</node>
			<node id="10"> -5.0000000e-01, -5.0000000e-01,  3.8797098e-01</node>
			<node id="11"> -5.0000000e-01, -5.0000000e-01,  5.0000000e-01</node>
			<node id="12"> -5.0000000e-01, -5.0000000e-01,  6.1202902e-01</node>
			<node id="13"> -5.0000000e-01, -5.0000000e-01,  7.0165224e-01</node>
			<node id="14"> -5.0000000e-01, -5.0000000e-01,  7.7335082e-01</node>
			<node id="15"> -5.0000000e-01, -5.0000000e-01,  8.3070968e-01</node>
			<node id="16"> -5.0000000e-01, -5.0000000e-01,  8.7659677e-01</node>
			<node id="17"> -5.0000000e-01, -5.0000000e-01,  9.1330644e-01</node>
			<node id="18"> -5.0000000e-01, -5.0000000e-01,  9.4267418e-01</node>
			<node id="19"> -5.0000000e-01, -5.0000000e-01,  9.6616837e-01</node>
			<node id="20"> -5.0000000e-01, -5.0000000e-01,  9.8496372e-01</node>
<!-- ... 148 like lines cut -->
		</Nodes>
		<Elements>
			<hex8 id="1" mat="2">     1,    43,    64,    22,     2,    44,    65,    23</hex8>
			<hex8 id="2" mat="2">     2,    44,    65,    23,     3,    45,    66,    24</hex8>
			<hex8 id="3" mat="2">     3,    45,    66,    24,     4,    46,    67,    25</hex8>
			<hex8 id="4" mat="2">     4,    46,    67,    25,     5,    47,    68,    26</hex8>
			<hex8 id="5" mat="2">     5,    47,    68,    26,     6,    48,    69,    27</hex8>
			<hex8 id="6" mat="2">     6,    48,    69,    27,     7,    49,    70,    28</hex8>
			<hex8 id="7" mat="2">     7,    49,    70,    28,     8,    50,    71,    29</hex8>
			<hex8 id="8" mat="2">     8,    50,    71,    29,     9,    51,    72,    30</hex8>
			<hex8 id="9" mat="2">     9,    51,    72,    30,    10,    52,    73,    31</hex8>
			<hex8 id="10" mat="2">    10,    52,    73,    31,    11,    53,    74,    32</hex8>
			<hex8 id="11" mat="2">    11,    53,    74,    32,    12,    54,    75,    33</hex8>
			<hex8 id="12" mat="2">    12,    54,    75,    33,    13,    55,    76,    34</hex8>
			<hex8 id="13" mat="2">    13,    55,    76,    34,    14,    56,    77,    35</hex8>
			<hex8 id="14" mat="2">    14,    56,    77,    35,    15,    57,    78,    36</hex8>
			<hex8 id="15" mat="2">    15,    57,    78,    36,    16,    58,    79,    37</hex8>
			<hex8 id="16" mat="2">    16,    58,    79,    37,    17,    59,    80,    38</hex8>
			<hex8 id="17" mat="2">    17,    59,    80,    38,    18,    60,    81,    39</hex8>
			<hex8 id="18" mat="2">    18,    60,    81,    39,    19,    61,    82,    40</hex8>
			<hex8 id="19" mat="2">    19,    61,    82,    40,    20,    62,    83,    41</hex8>
			<hex8 id="20" mat="2">    20,    62,    83,    41,    21,    63,    84,    42</hex8>
<!-- ... 20 like lines cut -->
		</Elements>
	</Geometry>
	<Boundary>
		<fix>
			<node id="1" bc="x"/>
			<node id="2" bc="x"/>
			<node id="3" bc="x"/>
			<node id="4" bc="x"/>
			<node id="5" bc="x"/>
			<node id="6" bc="x"/>
			<node id="7" bc="x"/>
			<node id="8" bc="x"/>
			<node id="9" bc="x"/>
			<node id="10" bc="x"/>
			<node id="11" bc="x"/>
			<node id="12" bc="x"/>
			<node id="13" bc="x"/>
			<node id="14" bc="x"/>
			<node id="15" bc="x"/>
			<node id="16" bc="x"/>
			<node id="17" bc="x"/>
			<node id="18" bc="x"/>
			<node id="19" bc="x"/>
			<node id="20" bc="x"/>
<!-- ... 316 like lines cut -->
		</fix>
		<fix>
			<node id="1" bc="y"/>
			<node id="2" bc="y"/>
			<node id="3" bc="y"/>
			<node id="4" bc="y"/>
			<node id="5" bc="y"/>
			<node id="6" bc="y"/>
			<node id="7" bc="y"/>
			<node id="8" bc="y"/>
			<node id="9" bc="y"/>
			<node id="10" bc="y"/>
			<node id="11" bc="y"/>
			<node id="12" bc="y"/>
			<node id="13" bc="y"/>
			<node id="14" bc="y"/>
			<node id="15" bc="y"/>
			<node id="16" bc="y"/>
			<node id="17" bc="y"/>
			<node id="18" bc="y"/>
			<node id="19" bc="y"/>
			<node id="20" bc="y"/>
<!-- ... 316 like lines cut -->
		</fix>
		<fix>
			<node id="1" bc="p"/>
			<node id="22" bc="p"/>
			<node id="43" bc="p"/>
			<node id="64" bc="p"/>
		</fix>
		<fix>
			<node id="1" bc="z"/>
			<node id="22" bc="z"/>
			<node id="43" bc="z"/>
			<node id="64" bc="z"/>
		</fix>
		<contact type="rigid">
			<node id="105" rb="3"></node>
			<node id="126" rb="3"></node>
			<node id="147" rb="3"></node>
			<node id="168" rb="3"></node>
		</contact>
		<contact type="sliding2">
			<laugon>0</laugon>
			<tolerance>0.2</tolerance>
			<penalty>10</penalty>
			<two_pass>1</two_pass>
			<auto_penalty>1</auto_penalty>
			<pressure_penalty>1</pressure_penalty>
			<symmetric_stiffness>0</symmetric_stiffness>
			<search_radius>1</search_radius>
			<surface type="master">
				<quad4 id="1">    85,   106,   148,   127</quad4>
			</surface>
			<surface type="slave">
				<quad4 id="1">    21,    63,    84,    42</quad4>
			</surface>
		</contact>
	</Boundary>
	<Constraints>
		<rigid_body mat="3">
			<trans_x type="fixed"></trans_x>
			<trans_y type="fixed"></trans_y>
			<rot_x type="fixed"></rot_x>
			<rot_y type="fixed"></rot_y>
			<rot_z type="fixed"></rot_z>
		</rigid_body>
		<rigid_body mat="3">
			<trans_z type="force" lc="2">1</trans_z>
		</rigid_body>
	</Constraints>
	<LoadData>
		<loadcurve id="1" type="step">
			<loadpoint>0,0</loadpoint>
			<loadpoint>1,0.1</loadpoint>
			<loadpoint>10,1</loadpoint>
			<loadpoint>100,10</loadpoint>
			<loadpoint>1000,100</loadpoint>
			<loadpoint>10000,1000</loadpoint>
		</loadcurve>
		<loadcurve id="2" type="step">
			<loadpoint>0,0</loadpoint>
			<loadpoint>1,-0.2</loadpoint>
		</loadcurve>
	</LoadData>
	<Output>
		<plotfile type="febio">
			<var type="contact force"/>
			<var type="contact gap"/>
			<var type="contact pressure"/>
			<var type="displacement"/>
			<var type="effective fluid pressure"/>
			<var type="fluid flux"/>
			<var type="fluid force"/>
			<var type="fluid pressure"/>
			<var type="pressure gap"/>
			<var type="reaction forces"/>
			<var type="relative volume"/>
			<var type="stress"/>
		</plotfile>
		<logfile>
			<element_data data="p">1</element_data>
		</logfile>
	</Output>
</febio_spec>
