<?xml version="1.0" encoding="ISO-8859-1"?>
<!--
Problem Description:
	Step loading of cylindrical disk in unconfined compression.
	The solute concentration is initially uniform in the disk and equal to the prescribed bath concentration.
	A step compressive strain cause solute concentration to increase in the disk, before desorbing back down.
	Units: length = mm, force = N, time = s, mole = nanomol; stress = MPa, concentration = mM.
Main Features:
	Biphasic with Solute
Secondary Features:
	
Materials:
	biphasic-solute
Degrees of Freedom: 2465
Results:
	Steps Completed: 105
	Equilibrium Iterations: 200
	Right Hand Evaluations: 305
	Siffness Reformations: 200
	Other:
		The material has a minimum solute concentration of 6e-03 at time t=3113.
Comments:
	
-->
<febio_spec version="1.2">
	<Module type="solute"/>
	<Control>
		<title>Step Loading Solute Uptake</title>
		<final_time>7200</final_time>
		<step_size>0.01</step_size>
		<max_refs>25</max_refs>
		<max_ups>0</max_ups>
		<dtol>0.001</dtol>
		<ctol>0.001</ctol>
		<etol>0.01</etol>
		<rtol>0</rtol>
		<lstol>0.9</lstol>
		<symmetric_biphasic>0</symmetric_biphasic>
		<time_stepper>
			<dtmin>0.01</dtmin>
			<dtmax lc="3"></dtmax>
			<max_retries>5</max_retries>
			<opt_iter>100</opt_iter>
		</time_stepper>
	</Control>
	<Globals>
		<Constants>
			<R>8.314e-6</R>
			<T>298</T>
		</Constants>
		<Solutes>
			<solute id="1" name="neutral">
				<charge_number>0</charge_number>
			</solute>
		</Solutes>
	</Globals>
	<Material>
		<material id="1" name="Biphasic with solute" type="biphasic-solute">
		  <phi0>0.04</phi0>
		  <solid name="Solid Matrix" type="neo-Hookean">
			<density>1</density>
			<E>0.006</E>
			<v>0</v>
		  </solid>
		  <permeability name="Permeability" type="perm-Holmes-Mow">
			<perm>0.08</perm>
			<M>0</M>
			<alpha>0</alpha>
		  </permeability>
		  <osmotic_coefficient name="Osmotic Coefficient" type="osm-coef-const">
			<osmcoef>1.0</osmcoef>
		  </osmotic_coefficient>
		  <solute sol="1">
			  <diffusivity name="Diffusivity" type="diff-const-iso">
				<free_diff>3.9e-4</free_diff>
				<diff>2.75e-4</diff>
			  </diffusivity>
			  <solubility name="Solubility" type="solub-const">
				<solub>1.0</solub>
			  </solubility>
		  </solute>
		</material>
	</Material>
	<Geometry>
		<Nodes>
			<node id="1">  0.0000000e+00,  0.0000000e+00,  0.0000000e+00</node>
			<node id="2">  5.2414736e-02,  0.0000000e+00,  0.0000000e+00</node>
			<node id="3">  4.8424902e-02,  2.0058251e-02,  0.0000000e+00</node>
			<node id="4">  3.7062816e-02,  3.7062815e-02,  0.0000000e+00</node>
			<node id="5">  2.0058252e-02,  4.8424902e-02,  0.0000000e+00</node>
			<node id="6">  1.4044474e-09,  5.2414736e-02,  0.0000000e+00</node>
			<node id="7">  1.0220874e-01,  0.0000000e+00,  0.0000000e+00</node>
			<node id="8">  9.4428559e-02,  3.9113589e-02,  0.0000000e+00</node>
			<node id="9">  7.2272491e-02,  7.2272489e-02,  0.0000000e+00</node>
			<node id="10">  3.9113592e-02,  9.4428558e-02,  0.0000000e+00</node>
			<node id="11">  2.7386725e-09,  1.0220874e-01,  0.0000000e+00</node>
			<node id="12">  1.4951304e-01,  0.0000000e+00,  0.0000000e+00</node>
			<node id="13">  1.3813203e-01,  5.7216161e-02,  0.0000000e+00</node>
			<node id="14">  1.0572168e-01,  1.0572168e-01,  0.0000000e+00</node>
			<node id="15">  5.7216164e-02,  1.3813203e-01,  0.0000000e+00</node>
			<node id="16">  4.0061863e-09,  1.4951304e-01,  0.0000000e+00</node>
			<node id="17">  1.9445212e-01,  0.0000000e+00,  0.0000000e+00</node>
			<node id="18">  1.7965033e-01,  7.4413604e-02,  0.0000000e+00</node>
			<node id="19">  1.3749841e-01,  1.3749841e-01,  0.0000000e+00</node>
			<node id="20">  7.4413608e-02,  1.7965033e-01,  0.0000000e+00</node>
<!-- ... 582 like lines cut -->
		</Nodes>
		<Elements>
			<penta6 id="1" mat="1">     1,     2,     3,   302,   303,   304</penta6>
			<penta6 id="2" mat="1">     1,     3,     4,   302,   304,   305</penta6>
			<penta6 id="3" mat="1">     1,     4,     5,   302,   305,   306</penta6>
			<penta6 id="4" mat="1">     1,     5,     6,   302,   306,   307</penta6>
			<hex8 id="5" mat="1">     2,     7,     8,     3,   303,   308,   309,   304</hex8>
			<hex8 id="6" mat="1">     3,     8,     9,     4,   304,   309,   310,   305</hex8>
			<hex8 id="7" mat="1">     4,     9,    10,     5,   305,   310,   311,   306</hex8>
			<hex8 id="8" mat="1">     5,    10,    11,     6,   306,   311,   312,   307</hex8>
			<hex8 id="9" mat="1">     7,    12,    13,     8,   308,   313,   314,   309</hex8>
			<hex8 id="10" mat="1">     8,    13,    14,     9,   309,   314,   315,   310</hex8>
			<hex8 id="11" mat="1">     9,    14,    15,    10,   310,   315,   316,   311</hex8>
			<hex8 id="12" mat="1">    10,    15,    16,    11,   311,   316,   317,   312</hex8>
			<hex8 id="13" mat="1">    12,    17,    18,    13,   313,   318,   319,   314</hex8>
			<hex8 id="14" mat="1">    13,    18,    19,    14,   314,   319,   320,   315</hex8>
			<hex8 id="15" mat="1">    14,    19,    20,    15,   315,   320,   321,   316</hex8>
			<hex8 id="16" mat="1">    15,    20,    21,    16,   316,   321,   322,   317</hex8>
			<hex8 id="17" mat="1">    17,    22,    23,    18,   318,   323,   324,   319</hex8>
			<hex8 id="18" mat="1">    18,    23,    24,    19,   319,   324,   325,   320</hex8>
			<hex8 id="19" mat="1">    19,    24,    25,    20,   320,   325,   326,   321</hex8>
			<hex8 id="20" mat="1">    20,    25,    26,    21,   321,   326,   327,   322</hex8>
			<hex8 id="21" mat="1">    22,    27,    28,    23,   323,   328,   329,   324</hex8>
			<hex8 id="22" mat="1">    23,    28,    29,    24,   324,   329,   330,   325</hex8>
			<hex8 id="23" mat="1">    24,    29,    30,    25,   325,   330,   331,   326</hex8>
			<hex8 id="24" mat="1">    25,    30,    31,    26,   326,   331,   332,   327</hex8>
<!-- ... 216 like lines cut -->
		</Elements>
	</Geometry>
	<Boundary>
		<fix>
			<node id="1" bc="x"/>
			<node id="6" bc="x"/>
			<node id="11" bc="x"/>
			<node id="16" bc="x"/>
			<node id="21" bc="x"/>
			<node id="26" bc="x"/>
			<node id="31" bc="x"/>
			<node id="36" bc="x"/>
			<node id="41" bc="x"/>
			<node id="46" bc="x"/>
			<node id="51" bc="x"/>
			<node id="56" bc="x"/>
			<node id="61" bc="x"/>
			<node id="66" bc="x"/>
			<node id="71" bc="x"/>
			<node id="76" bc="x"/>
			<node id="81" bc="x"/>
			<node id="86" bc="x"/>
			<node id="91" bc="x"/>
			<node id="96" bc="x"/>
<!-- ... 102 like lines cut -->
		</fix>
		<fix>
			<node id="1" bc="y"/>
			<node id="2" bc="y"/>
			<node id="7" bc="y"/>
			<node id="12" bc="y"/>
			<node id="17" bc="y"/>
			<node id="22" bc="y"/>
			<node id="27" bc="y"/>
			<node id="32" bc="y"/>
			<node id="37" bc="y"/>
			<node id="42" bc="y"/>
			<node id="47" bc="y"/>
			<node id="52" bc="y"/>
			<node id="57" bc="y"/>
			<node id="62" bc="y"/>
			<node id="67" bc="y"/>
			<node id="72" bc="y"/>
			<node id="77" bc="y"/>
			<node id="82" bc="y"/>
			<node id="87" bc="y"/>
			<node id="92" bc="y"/>
<!-- ... 102 like lines cut -->
		</fix>
		<fix>
			<node id="1" bc="z"/>
			<node id="2" bc="z"/>
			<node id="3" bc="z"/>
			<node id="4" bc="z"/>
			<node id="5" bc="z"/>
			<node id="6" bc="z"/>
			<node id="7" bc="z"/>
			<node id="8" bc="z"/>
			<node id="9" bc="z"/>
			<node id="10" bc="z"/>
			<node id="11" bc="z"/>
			<node id="12" bc="z"/>
			<node id="13" bc="z"/>
			<node id="14" bc="z"/>
			<node id="15" bc="z"/>
			<node id="16" bc="z"/>
			<node id="17" bc="z"/>
			<node id="18" bc="z"/>
			<node id="19" bc="z"/>
			<node id="20" bc="z"/>
<!-- ... 281 like lines cut -->
		</fix>
		<prescribe>
			<node id="302" bc="z" lc="1">1</node>
			<node id="303" bc="z" lc="1">1</node>
			<node id="304" bc="z" lc="1">1</node>
			<node id="305" bc="z" lc="1">1</node>
			<node id="306" bc="z" lc="1">1</node>
			<node id="307" bc="z" lc="1">1</node>
			<node id="308" bc="z" lc="1">1</node>
			<node id="309" bc="z" lc="1">1</node>
			<node id="310" bc="z" lc="1">1</node>
			<node id="311" bc="z" lc="1">1</node>
			<node id="312" bc="z" lc="1">1</node>
			<node id="313" bc="z" lc="1">1</node>
			<node id="314" bc="z" lc="1">1</node>
			<node id="315" bc="z" lc="1">1</node>
			<node id="316" bc="z" lc="1">1</node>
			<node id="317" bc="z" lc="1">1</node>
			<node id="318" bc="z" lc="1">1</node>
			<node id="319" bc="z" lc="1">1</node>
			<node id="320" bc="z" lc="1">1</node>
			<node id="321" bc="z" lc="1">1</node>
<!-- ... 281 like lines cut -->
		</prescribe>
		<prescribe>
			<node id="297" bc="p" lc="2">-2.4776e-3</node>
			<node id="298" bc="p" lc="2">-2.4776e-3</node>
			<node id="299" bc="p" lc="2">-2.4776e-3</node>
			<node id="300" bc="p" lc="2">-2.4776e-3</node>
			<node id="301" bc="p" lc="2">-2.4776e-3</node>
			<node id="598" bc="p" lc="2">-2.4776e-3</node>
			<node id="599" bc="p" lc="2">-2.4776e-3</node>
			<node id="600" bc="p" lc="2">-2.4776e-3</node>
			<node id="601" bc="p" lc="2">-2.4776e-3</node>
			<node id="602" bc="p" lc="2">-2.4776e-3</node>
		</prescribe>
		<prescribe>
			<node id="297" bc="c1" lc="2">1</node>
			<node id="298" bc="c1" lc="2">1</node>
			<node id="299" bc="c1" lc="2">1</node>
			<node id="300" bc="c1" lc="2">1</node>
			<node id="301" bc="c1" lc="2">1</node>
			<node id="598" bc="c1" lc="2">1</node>
			<node id="599" bc="c1" lc="2">1</node>
			<node id="600" bc="c1" lc="2">1</node>
			<node id="601" bc="c1" lc="2">1</node>
			<node id="602" bc="c1" lc="2">1</node>
		</prescribe>
	</Boundary>
	<Initial>
		<concentration>
			<node id="1">  0.006</node>
			<node id="2">  0.006</node>
			<node id="3">  0.006</node>
			<node id="4">  0.006</node>
			<node id="5">  0.006</node>
			<node id="6">  0.006</node>
			<node id="7">  0.006</node>
			<node id="8">  0.006</node>
			<node id="9">  0.006</node>
			<node id="10">  0.006</node>
			<node id="11">  0.006</node>
			<node id="12">  0.006</node>
			<node id="13">  0.006</node>
			<node id="14">  0.006</node>
			<node id="15">  0.006</node>
			<node id="16">  0.006</node>
			<node id="17">  0.006</node>
			<node id="18">  0.006</node>
			<node id="19">  0.006</node>
			<node id="20">  0.006</node>
<!-- ... 582 like lines cut -->
		</concentration>
	</Initial>
	<LoadData>
		<loadcurve id="1" type="step" extend="constant">
			<loadpoint>0,0</loadpoint>
			<loadpoint>0.01,-0.01</loadpoint>
		</loadcurve>
		<loadcurve id="2" type="step" extend="constant">
			<loadpoint>0,0</loadpoint>
			<loadpoint>0.01,0.006</loadpoint>
		</loadcurve>
		<loadcurve id="3" type="linear" extend="extrapolate">
			<loadpoint>0,0</loadpoint>
			<loadpoint>1,0.2</loadpoint>
		</loadcurve>
	</LoadData>
	<Output>
	  	<plotfile type="febio">
		  <var type="displacement"/>
		  <var type="stress"/>
		  <var type="relative volume"/>
		  <var type="effective fluid pressure"/>
		  <var type="fluid pressure"/>
		  <var type="fluid flux"/>
		  <var type="effective solute concentration"/>
		  <var type="solute concentration"/>
		  <var type="solute flux"/>
		</plotfile>
		<logfile>
			<element_data data="c">1</element_data>
		</logfile>
	</Output>
</febio_spec>
