<?xml version="1.0" encoding="ISO-8859-1"?>
<!--
Problem Description:
	An element with prescribed displacement of -0.5 units in the z-direction compresses
	a 5x5x4 element block with sliding contact.
Main Features:
	Contact using the sliding_with_gaps algorithm
Secondary Features:
	
Materials:
	Mooney-Rivlin
Degrees of Freedom: 368
Results:
	Steps Completed: 6
	Equilibrium Iterations: 31
	Right Hand Evaluations: 44
	Siffness Reformations: 7
	Other:
		The bottom of the top element (node 187) has a z-displacement of -0.215 at time t=1.
Comments:
	Convergence and contact penetration are improved by setting auto="on" in the contact penalty.
-->
<febio_spec version="1.2">
	<Module type="solid"/>
	<Control>
		<title>Sliding Contact Block Compression</title>
		<time_steps>10</time_steps>
		<step_size>0.1</step_size>
		<max_refs>15</max_refs>
		<max_ups>10</max_ups>
		<dtol>0.001</dtol>
		<etol>0.01</etol>
		<rtol>1e+010</rtol>
		<lstol>0.9</lstol>
		<time_stepper>
			<dtmin>0.0333333</dtmin>
			<dtmax>0.3</dtmax>
			<max_retries>5</max_retries>
			<opt_iter>11</opt_iter>
		</time_stepper>
	</Control>
	<Material>
		<material id="1" name="Material 1" type="Mooney-Rivlin">
			<c1>100</c1>
			<c2>0</c2>
			<k>933.333</k>
		</material>
	</Material>
	<Geometry>
		<Nodes>
			<node id="1">-5.0000000e-001,-5.0000000e-001, 0.0000000e+000</node>
			<node id="2">-5.0000000e-001,-5.0000000e-001, 1.2500000e-001</node>
			<node id="3">-5.0000000e-001,-5.0000000e-001, 2.5000000e-001</node>
			<node id="4">-5.0000000e-001,-5.0000000e-001, 3.7500000e-001</node>
			<node id="5">-5.0000000e-001,-5.0000000e-001, 5.0000000e-001</node>
			<node id="6">-5.0000000e-001,-3.0000001e-001, 0.0000000e+000</node>
			<node id="7">-5.0000000e-001,-3.0000001e-001, 1.2500000e-001</node>
			<node id="8">-5.0000000e-001,-3.0000001e-001, 2.5000000e-001</node>
			<node id="9">-5.0000000e-001,-3.0000001e-001, 3.7500000e-001</node>
			<node id="10">-5.0000000e-001,-3.0000001e-001, 5.0000000e-001</node>
			<node id="11">-5.0000000e-001,-1.0000000e-001, 0.0000000e+000</node>
			<node id="12">-5.0000000e-001,-1.0000000e-001, 1.2500000e-001</node>
			<node id="13">-5.0000000e-001,-1.0000000e-001, 2.5000000e-001</node>
			<node id="14">-5.0000000e-001,-1.0000000e-001, 3.7500000e-001</node>
			<node id="15">-5.0000000e-001,-1.0000000e-001, 5.0000000e-001</node>
			<node id="16">-5.0000000e-001, 1.0000000e-001, 0.0000000e+000</node>
			<node id="17">-5.0000000e-001, 1.0000000e-001, 1.2500000e-001</node>
			<node id="18">-5.0000000e-001, 1.0000000e-001, 2.5000000e-001</node>
			<node id="19">-5.0000000e-001, 1.0000000e-001, 3.7500000e-001</node>
			<node id="20">-5.0000000e-001, 1.0000000e-001, 5.0000000e-001</node>
<!-- ... 168 like lines cut -->
		</Nodes>
		<Elements>
			<hex8 id="1" mat="1">     1,    31,    36,     6,     2,    32,    37,     7</hex8>
			<hex8 id="2" mat="1">     2,    32,    37,     7,     3,    33,    38,     8</hex8>
			<hex8 id="3" mat="1">     3,    33,    38,     8,     4,    34,    39,     9</hex8>
			<hex8 id="4" mat="1">     4,    34,    39,     9,     5,    35,    40,    10</hex8>
			<hex8 id="5" mat="1">     6,    36,    41,    11,     7,    37,    42,    12</hex8>
			<hex8 id="6" mat="1">     7,    37,    42,    12,     8,    38,    43,    13</hex8>
			<hex8 id="7" mat="1">     8,    38,    43,    13,     9,    39,    44,    14</hex8>
			<hex8 id="8" mat="1">     9,    39,    44,    14,    10,    40,    45,    15</hex8>
			<hex8 id="9" mat="1">    11,    41,    46,    16,    12,    42,    47,    17</hex8>
			<hex8 id="10" mat="1">    12,    42,    47,    17,    13,    43,    48,    18</hex8>
			<hex8 id="11" mat="1">    13,    43,    48,    18,    14,    44,    49,    19</hex8>
			<hex8 id="12" mat="1">    14,    44,    49,    19,    15,    45,    50,    20</hex8>
			<hex8 id="13" mat="1">    16,    46,    51,    21,    17,    47,    52,    22</hex8>
			<hex8 id="14" mat="1">    17,    47,    52,    22,    18,    48,    53,    23</hex8>
			<hex8 id="15" mat="1">    18,    48,    53,    23,    19,    49,    54,    24</hex8>
			<hex8 id="16" mat="1">    19,    49,    54,    24,    20,    50,    55,    25</hex8>
			<hex8 id="17" mat="1">    21,    51,    56,    26,    22,    52,    57,    27</hex8>
			<hex8 id="18" mat="1">    22,    52,    57,    27,    23,    53,    58,    28</hex8>
			<hex8 id="19" mat="1">    23,    53,    58,    28,    24,    54,    59,    29</hex8>
			<hex8 id="20" mat="1">    24,    54,    59,    29,    25,    55,    60,    30</hex8>
<!-- ... 81 like lines cut -->
		</Elements>
	</Geometry>
	<Boundary>
		<fix>
			<node id="1" bc="xyz"></node>
			<node id="5" bc="xy"></node>
			<node id="6" bc="xyz"></node>
			<node id="10" bc="xy"></node>
			<node id="11" bc="xyz"></node>
			<node id="15" bc="xy"></node>
			<node id="16" bc="xyz"></node>
			<node id="20" bc="xy"></node>
			<node id="21" bc="xyz"></node>
			<node id="25" bc="xy"></node>
			<node id="26" bc="xyz"></node>
			<node id="30" bc="xy"></node>
			<node id="31" bc="xyz"></node>
			<node id="35" bc="xy"></node>
			<node id="36" bc="xyz"></node>
			<node id="40" bc="xy"></node>
			<node id="41" bc="xyz"></node>
			<node id="45" bc="xy"></node>
			<node id="46" bc="xyz"></node>
			<node id="50" bc="xy"></node>
			<node id="51" bc="xyz"></node>
			<node id="55" bc="xy"></node>
			<node id="56" bc="xyz"></node>
			<node id="60" bc="xy"></node>
			<node id="61" bc="xyz"></node>
			<node id="65" bc="xy"></node>
			<node id="66" bc="xyz"></node>
			<node id="70" bc="xy"></node>
			<node id="71" bc="xyz"></node>
			<node id="75" bc="xy"></node>
			<node id="76" bc="xyz"></node>
			<node id="80" bc="xy"></node>
			<node id="81" bc="xyz"></node>
			<node id="85" bc="xy"></node>
			<node id="86" bc="xyz"></node>
			<node id="90" bc="xy"></node>
			<node id="91" bc="xyz"></node>
			<node id="95" bc="xy"></node>
			<node id="96" bc="xyz"></node>
			<node id="100" bc="xy"></node>
<!-- ... 32 like lines cut -->
			<node id="181" bc="xy"></node>
			<node id="182" bc="xy"></node>
			<node id="183" bc="xy"></node>
			<node id="184" bc="xy"></node>
			<node id="185" bc="xy"></node>
			<node id="186" bc="xy"></node>
			<node id="187" bc="xy"></node>
			<node id="188" bc="xy"></node>
		</fix>
		<prescribe>
			<node id="182" bc="z" lc="1">1</node>
			<node id="184" bc="z" lc="1">1</node>
			<node id="186" bc="z" lc="1">1</node>
			<node id="188" bc="z" lc="1">1</node>
		</prescribe>
		<contact type="sliding_with_gaps">
			<laugon>0</laugon>
			<tolerance>0.1</tolerance>
			<penalty>1e+006</penalty>
			<auto_penalty>1</auto_penalty>
			<two_pass>0</two_pass>
			<surface type="master">
				<quad4 id="1">     5,    35,    40,    10</quad4>
				<quad4 id="2">    10,    40,    45,    15</quad4>
				<quad4 id="3">    15,    45,    50,    20</quad4>
				<quad4 id="4">    20,    50,    55,    25</quad4>
				<quad4 id="5">    25,    55,    60,    30</quad4>
				<quad4 id="6">    35,    65,    70,    40</quad4>
				<quad4 id="7">    40,    70,    75,    45</quad4>
				<quad4 id="8">    45,    75,    80,    50</quad4>
				<quad4 id="9">    50,    80,    85,    55</quad4>
				<quad4 id="10">    55,    85,    90,    60</quad4>
				<quad4 id="11">    65,    95,   100,    70</quad4>
				<quad4 id="12">    70,   100,   105,    75</quad4>
				<quad4 id="13">    75,   105,   110,    80</quad4>
				<quad4 id="14">    80,   110,   115,    85</quad4>
				<quad4 id="15">    85,   115,   120,    90</quad4>
				<quad4 id="16">    95,   125,   130,   100</quad4>
				<quad4 id="17">   100,   130,   135,   105</quad4>
				<quad4 id="18">   105,   135,   140,   110</quad4>
				<quad4 id="19">   110,   140,   145,   115</quad4>
				<quad4 id="20">   115,   145,   150,   120</quad4>
<!-- ... 5 like lines cut -->
			</surface>
			<surface type="slave">
				<quad4 id="26">   183,   187,   185,   181</quad4>
			</surface>
		</contact>
	</Boundary>
	<LoadData>
		<loadcurve id="1">
			<loadpoint>0,0</loadpoint>
			<loadpoint>1,-0.5</loadpoint>
		</loadcurve>
	</LoadData>
	<Output>
		<plotfile type="febio"></plotfile>
	    <logfile>
			<element_data data="Ez">92</element_data>
		</logfile>
	</Output>
</febio_spec>
