<?xml version="1.0" encoding="ISO-8859-1"?>
<!--
Problem Description:
	A stiff block with prescribed displacement of -0.14 units in the z-direction from time t=0
	to t=1 and then -0.8 units in the x-direction from time t=1 to t=2 compresses then slides
	across a larger softer block.
Main Features:
	Sliding_with_gaps contact
	Augmented Lagrangian
Secondary Features:
	Multiple displacement loadcurves
Materials:
	Mooney-Rivlin
Degrees of Freedom: 2149
Results:
	Solver: Pardiso
	Steps Completed: 40
	Equilibrium Iterations: 339
	Right Hand Evaluations: 434
	Siffness Reformations: 46
	Other:
		Node 36 (on the edge of the lower block) has a z-displacement of -0.15 at time t=1.4
Comments:
	Does not converge with auto="on" in the contact penalty.  Turning the auto time stepper off leads
	to better convergence and contact penetration using augmented Lagrangian.  Not using augmented
	Lagrangian creates too much penetration.
-->
<febio_spec version="1.2">
	<Module type="solid"/>
	<Control>
		<title>Two Block Compression and Sliding</title>
		<time_steps>40</time_steps>
		<step_size>0.05</step_size>
		<max_refs>15</max_refs>
		<max_ups>10</max_ups>
		<dtol>0.001</dtol>
		<etol>0.01</etol>
		<rtol>1e+010</rtol>
		<lstol>0.9</lstol>
<!--
		<time_stepper>
			<dtmin>0.0166667</dtmin>
			<dtmax lc= "3"</dtmax>
			<max_retries>5</max_retries>
			<opt_iter>11</opt_iter>
		</time_stepper>
-->
	</Control>
	<Material>
		<material id="1" name="top block (Mooney-Rivlin)" type="Mooney-Rivlin">
			<c1>100000</c1>
			<c2>0</c2>
			<k>133333</k>
		</material>
		<material id="2" name="bottom block (Mooney-Rivlin)" type="Mooney-Rivlin">
			<c1>1</c1>
			<c2>0</c2>
			<k>1.33333</k>
		</material>
	</Material>
	<Geometry>
		<Nodes>
			<node id="1">-5.0000000e-001,-5.0000000e-001, 0.0000000e+000</node>
			<node id="2">-5.0000000e-001,-5.0000000e-001, 1.0000000e-001</node>
			<node id="3">-5.0000000e-001,-5.0000000e-001, 2.0000000e-001</node>
			<node id="4">-5.0000000e-001,-5.0000000e-001, 3.0000001e-001</node>
			<node id="5">-5.0000000e-001,-5.0000000e-001, 4.0000001e-001</node>
			<node id="6">-5.0000000e-001,-5.0000000e-001, 5.0000000e-001</node>
			<node id="7">-5.0000000e-001,-4.0000001e-001, 0.0000000e+000</node>
			<node id="8">-5.0000000e-001,-4.0000001e-001, 1.0000000e-001</node>
			<node id="9">-5.0000000e-001,-4.0000001e-001, 2.0000000e-001</node>
			<node id="10">-5.0000000e-001,-4.0000001e-001, 3.0000001e-001</node>
			<node id="11">-5.0000000e-001,-4.0000001e-001, 4.0000001e-001</node>
			<node id="12">-5.0000000e-001,-4.0000001e-001, 5.0000000e-001</node>
			<node id="13">-5.0000000e-001,-3.0000001e-001, 0.0000000e+000</node>
			<node id="14">-5.0000000e-001,-3.0000001e-001, 1.0000000e-001</node>
			<node id="15">-5.0000000e-001,-3.0000001e-001, 2.0000000e-001</node>
			<node id="16">-5.0000000e-001,-3.0000001e-001, 3.0000001e-001</node>
			<node id="17">-5.0000000e-001,-3.0000001e-001, 4.0000001e-001</node>
			<node id="18">-5.0000000e-001,-3.0000001e-001, 5.0000000e-001</node>
			<node id="19">-5.0000000e-001,-2.0000000e-001, 0.0000000e+000</node>
			<node id="20">-5.0000000e-001,-2.0000000e-001, 1.0000000e-001</node>
<!-- ... 922 like lines cut -->
		</Nodes>
		<Elements>
			<hex8 id="1" mat="2">     1,    67,    73,     7,     2,    68,    74,     8</hex8>
			<hex8 id="2" mat="2">     2,    68,    74,     8,     3,    69,    75,     9</hex8>
			<hex8 id="3" mat="2">     3,    69,    75,     9,     4,    70,    76,    10</hex8>
			<hex8 id="4" mat="2">     4,    70,    76,    10,     5,    71,    77,    11</hex8>
			<hex8 id="5" mat="2">     5,    71,    77,    11,     6,    72,    78,    12</hex8>
			<hex8 id="6" mat="2">     7,    73,    79,    13,     8,    74,    80,    14</hex8>
			<hex8 id="7" mat="2">     8,    74,    80,    14,     9,    75,    81,    15</hex8>
			<hex8 id="8" mat="2">     9,    75,    81,    15,    10,    76,    82,    16</hex8>
			<hex8 id="9" mat="2">    10,    76,    82,    16,    11,    77,    83,    17</hex8>
			<hex8 id="10" mat="2">    11,    77,    83,    17,    12,    78,    84,    18</hex8>
			<hex8 id="11" mat="2">    13,    79,    85,    19,    14,    80,    86,    20</hex8>
			<hex8 id="12" mat="2">    14,    80,    86,    20,    15,    81,    87,    21</hex8>
			<hex8 id="13" mat="2">    15,    81,    87,    21,    16,    82,    88,    22</hex8>
			<hex8 id="14" mat="2">    16,    82,    88,    22,    17,    83,    89,    23</hex8>
			<hex8 id="15" mat="2">    17,    83,    89,    23,    18,    84,    90,    24</hex8>
			<hex8 id="16" mat="2">    19,    85,    91,    25,    20,    86,    92,    26</hex8>
			<hex8 id="17" mat="2">    20,    86,    92,    26,    21,    87,    93,    27</hex8>
			<hex8 id="18" mat="2">    21,    87,    93,    27,    22,    88,    94,    28</hex8>
			<hex8 id="19" mat="2">    22,    88,    94,    28,    23,    89,    95,    29</hex8>
			<hex8 id="20" mat="2">    23,    89,    95,    29,    24,    90,    96,    30</hex8>
<!-- ... 605 like lines cut -->
		</Elements>
	</Geometry>
	<Boundary>
		<fix>
			<node id="1" bc="xyz"></node>
			<node id="6" bc="xy"></node>
			<node id="7" bc="xyz"></node>
			<node id="12" bc="xy"></node>
			<node id="13" bc="xyz"></node>
			<node id="18" bc="xy"></node>
			<node id="19" bc="xyz"></node>
			<node id="24" bc="xy"></node>
			<node id="25" bc="xyz"></node>
			<node id="30" bc="xy"></node>
			<node id="31" bc="xyz"></node>
			<node id="36" bc="xy"></node>
			<node id="37" bc="xyz"></node>
			<node id="42" bc="xy"></node>
			<node id="43" bc="xyz"></node>
			<node id="48" bc="xy"></node>
			<node id="49" bc="xyz"></node>
			<node id="54" bc="xy"></node>
			<node id="55" bc="xyz"></node>
			<node id="60" bc="xy"></node>
			<node id="61" bc="xyz"></node>
			<node id="66" bc="xy"></node>
			<node id="67" bc="xyz"></node>
			<node id="72" bc="xy"></node>
			<node id="73" bc="xyz"></node>
			<node id="78" bc="xy"></node>
			<node id="79" bc="xyz"></node>
			<node id="84" bc="xy"></node>
			<node id="85" bc="xyz"></node>
			<node id="90" bc="xy"></node>
			<node id="91" bc="xyz"></node>
			<node id="96" bc="xy"></node>
			<node id="97" bc="xyz"></node>
			<node id="102" bc="xy"></node>
			<node id="103" bc="xyz"></node>
			<node id="108" bc="xy"></node>
			<node id="109" bc="xyz"></node>
			<node id="114" bc="xy"></node>
			<node id="115" bc="xyz"></node>
			<node id="120" bc="xy"></node>
<!-- ... 202 like lines cut -->
			<node id="727" bc="y"></node>
			<node id="732" bc="y"></node>
			<node id="733" bc="y"></node>
			<node id="738" bc="y"></node>
			<node id="739" bc="y"></node>
			<node id="744" bc="y"></node>
			<node id="745" bc="y"></node>
			<node id="750" bc="y"></node>
			<node id="751" bc="y"></node>
			<node id="756" bc="y"></node>
			<node id="757" bc="y"></node>
			<node id="762" bc="y"></node>
			<node id="763" bc="y"></node>
			<node id="768" bc="y"></node>
			<node id="769" bc="y"></node>
			<node id="774" bc="y"></node>
			<node id="775" bc="y"></node>
			<node id="780" bc="y"></node>
			<node id="781" bc="y"></node>
			<node id="786" bc="y"></node>
<!-- ... 52 like lines cut -->
		</fix>
		<prescribe>
			<node id="732" bc="x" lc="1">1</node>
			<node id="732" bc="z" lc="2">1</node>
			<node id="738" bc="x" lc="1">1</node>
			<node id="738" bc="z" lc="2">1</node>
			<node id="744" bc="x" lc="1">1</node>
			<node id="744" bc="z" lc="2">1</node>
			<node id="750" bc="x" lc="1">1</node>
			<node id="750" bc="z" lc="2">1</node>
			<node id="756" bc="x" lc="1">1</node>
			<node id="756" bc="z" lc="2">1</node>
			<node id="762" bc="x" lc="1">1</node>
			<node id="762" bc="z" lc="2">1</node>
			<node id="768" bc="x" lc="1">1</node>
			<node id="768" bc="z" lc="2">1</node>
			<node id="774" bc="x" lc="1">1</node>
			<node id="774" bc="z" lc="2">1</node>
			<node id="780" bc="x" lc="1">1</node>
			<node id="780" bc="z" lc="2">1</node>
			<node id="786" bc="x" lc="1">1</node>
			<node id="786" bc="z" lc="2">1</node>
			<node id="792" bc="x" lc="1">1</node>
			<node id="792" bc="z" lc="2">1</node>
			<node id="798" bc="x" lc="1">1</node>
			<node id="798" bc="z" lc="2">1</node>
			<node id="804" bc="x" lc="1">1</node>
			<node id="804" bc="z" lc="2">1</node>
			<node id="810" bc="x" lc="1">1</node>
			<node id="810" bc="z" lc="2">1</node>
			<node id="816" bc="x" lc="1">1</node>
			<node id="816" bc="z" lc="2">1</node>
			<node id="822" bc="x" lc="1">1</node>
			<node id="822" bc="z" lc="2">1</node>
			<node id="828" bc="x" lc="1">1</node>
			<node id="828" bc="z" lc="2">1</node>
			<node id="834" bc="x" lc="1">1</node>
			<node id="834" bc="z" lc="2">1</node>
			<node id="840" bc="x" lc="1">1</node>
			<node id="840" bc="z" lc="2">1</node>
			<node id="846" bc="x" lc="1">1</node>
			<node id="846" bc="z" lc="2">1</node>
<!-- ... 32 like lines cut -->
		</prescribe>
		<contact type="sliding_with_gaps">
			<laugon>1</laugon>
			<tolerance>0.1</tolerance>
			<penalty>1000</penalty>
			<auto_penalty>0</auto_penalty>
			<two_pass>0</two_pass>
			<surface type="master">
				<quad4 id="1">     6,    72,    78,    12</quad4>
				<quad4 id="2">    12,    78,    84,    18</quad4>
				<quad4 id="3">    18,    84,    90,    24</quad4>
				<quad4 id="4">    24,    90,    96,    30</quad4>
				<quad4 id="5">    30,    96,   102,    36</quad4>
				<quad4 id="6">    36,   102,   108,    42</quad4>
				<quad4 id="7">    42,   108,   114,    48</quad4>
				<quad4 id="8">    48,   114,   120,    54</quad4>
				<quad4 id="9">    54,   120,   126,    60</quad4>
				<quad4 id="10">    60,   126,   132,    66</quad4>
				<quad4 id="11">    72,   138,   144,    78</quad4>
				<quad4 id="12">    78,   144,   150,    84</quad4>
				<quad4 id="13">    84,   150,   156,    90</quad4>
				<quad4 id="14">    90,   156,   162,    96</quad4>
				<quad4 id="15">    96,   162,   168,   102</quad4>
				<quad4 id="16">   102,   168,   174,   108</quad4>
				<quad4 id="17">   108,   174,   180,   114</quad4>
				<quad4 id="18">   114,   180,   186,   120</quad4>
				<quad4 id="19">   120,   186,   192,   126</quad4>
				<quad4 id="20">   126,   192,   198,   132</quad4>
<!-- ... 80 like lines cut -->
			</surface>
			<surface type="slave">
				<quad4 id="101">   733,   769,   763,   727</quad4>
				<quad4 id="102">   739,   775,   769,   733</quad4>
				<quad4 id="103">   745,   781,   775,   739</quad4>
				<quad4 id="104">   751,   787,   781,   745</quad4>
				<quad4 id="105">   757,   793,   787,   751</quad4>
				<quad4 id="106">   769,   805,   799,   763</quad4>
				<quad4 id="107">   775,   811,   805,   769</quad4>
				<quad4 id="108">   781,   817,   811,   775</quad4>
				<quad4 id="109">   787,   823,   817,   781</quad4>
				<quad4 id="110">   793,   829,   823,   787</quad4>
				<quad4 id="111">   805,   841,   835,   799</quad4>
				<quad4 id="112">   811,   847,   841,   805</quad4>
				<quad4 id="113">   817,   853,   847,   811</quad4>
				<quad4 id="114">   823,   859,   853,   817</quad4>
				<quad4 id="115">   829,   865,   859,   823</quad4>
				<quad4 id="116">   841,   877,   871,   835</quad4>
				<quad4 id="117">   847,   883,   877,   841</quad4>
				<quad4 id="118">   853,   889,   883,   847</quad4>
				<quad4 id="119">   859,   895,   889,   853</quad4>
				<quad4 id="120">   865,   901,   895,   859</quad4>
<!-- ... 5 like lines cut -->
			</surface>
		</contact>
	</Boundary>
	<LoadData>
		<loadcurve id="1">
			<loadpoint>0,0</loadpoint>
			<loadpoint>1,0</loadpoint>
			<loadpoint>2,-0.8</loadpoint>
		</loadcurve>
		<loadcurve id="2">
			<loadpoint>0,0</loadpoint>
			<loadpoint>1,-0.14</loadpoint>
			<loadpoint>2,-0.14</loadpoint>
		</loadcurve>
		<loadcurve id="3" type="step">
            <loadpoint>0,0</loadpoint>
            <loadpoint>1.2,0.05</loadpoint>
			<loadpoint>1,0.05</loadpoint>        
       </loadcurve>
	</LoadData>
	<Output>
		<plotfile type="febio"></plotfile>
	    <logfile>
			<element_data data="Ez">296</element_data>
		</logfile>
	</Output>
</febio_spec>
