<?xml version="1.0" encoding="ISO-8859-1"?>
<!--
Problem Description:
	A stiff section of a cylinder has a prescribed displacement in the z-direction 0f -0.35 units
	from time t=0 to t=1 and then a displacement of 3 units in the x-direction from time t=1 to
	t=4.  It presses down then slides along a softer block.
Main Features:
	Sliding2 symmetric Contact
	Full-Newton
Secondary Features:
	Plotfile output - velocity is CONTACT_TRACTION
	Multiple displacement loadcurves
Materials:
	Neo-Hookean
Degrees of Freedom: 4191
Results:
	Steps Completed: 40
	Equilibrium Iterations: 201
	Right Hand Evaluations: 335
	Siffness Reformations: 201
	Other:
		The bottom block has a maximum y-dispacement of 0.178 at time t=4.
Comments:
	This problem demonstrated the sliding2 symmetric contact with augmented Lagrangian turned off.
	It did not run well without using full-Newton (setting max_ups to 0).  Even though full-Newton
	converged with fewer iterations than BFGS, it took more than four times as long to do so.
	However, with these setting, this contact method did better than the other three.
-->
<febio_spec version="1.2">
	<Module type="solid"/>
	<Control>
		<title>Cylinder and Block</title>
		<time_steps>40</time_steps>
		<step_size>0.1</step_size>
		<max_refs>50</max_refs>
		<max_ups>0</max_ups>
		<dtol>0.01</dtol>
		<etol>0.01</etol>
		<rtol>0</rtol>
		<lstol>0.9</lstol>
	</Control>
	<Material>
		<material id="1" name="Material 1" type="neo-Hookean">
			<E>10000</E>
			<v>0</v>
		</material>
		<material id="2" name="Material 2" type="neo-Hookean">
			<E>1</E>
			<v>0.45</v>
		</material>
	</Material>
	<Geometry>
		<Nodes>
			<node id="1">-2.5000000e+000,-8.9999998e-001, 0.0000000e+000</node>
			<node id="2">-2.5000000e+000,-8.9999998e-001, 2.0000000e-001</node>
			<node id="3">-2.5000000e+000,-8.9999998e-001, 4.0000001e-001</node>
			<node id="4">-2.5000000e+000,-8.9999998e-001, 6.0000002e-001</node>
			<node id="5">-2.5000000e+000,-8.9999998e-001, 8.0000001e-001</node>
			<node id="6">-2.5000000e+000,-8.9999998e-001, 1.0000000e+000</node>
			<node id="7">-2.5000000e+000,-7.1999997e-001, 0.0000000e+000</node>
			<node id="8">-2.5000000e+000,-7.1999997e-001, 2.0000000e-001</node>
			<node id="9">-2.5000000e+000,-7.1999997e-001, 4.0000001e-001</node>
			<node id="10">-2.5000000e+000,-7.1999997e-001, 6.0000002e-001</node>
			<node id="11">-2.5000000e+000,-7.1999997e-001, 8.0000001e-001</node>
			<node id="12">-2.5000000e+000,-7.1999997e-001, 1.0000000e+000</node>
			<node id="13">-2.5000000e+000,-5.3999996e-001, 0.0000000e+000</node>
			<node id="14">-2.5000000e+000,-5.3999996e-001, 2.0000000e-001</node>
			<node id="15">-2.5000000e+000,-5.3999996e-001, 4.0000001e-001</node>
			<node id="16">-2.5000000e+000,-5.3999996e-001, 6.0000002e-001</node>
			<node id="17">-2.5000000e+000,-5.3999996e-001, 8.0000001e-001</node>
			<node id="18">-2.5000000e+000,-5.3999996e-001, 1.0000000e+000</node>
			<node id="19">-2.5000000e+000,-3.5999998e-001, 0.0000000e+000</node>
			<node id="20">-2.5000000e+000,-3.5999998e-001, 2.0000000e-001</node>
<!-- ... 1960 like lines cut -->
		</Nodes>
		<Elements>
			<hex8 id="1" mat="2">     1,    67,    73,     7,     2,    68,    74,     8</hex8>
			<hex8 id="2" mat="2">     2,    68,    74,     8,     3,    69,    75,     9</hex8>
			<hex8 id="3" mat="2">     3,    69,    75,     9,     4,    70,    76,    10</hex8>
			<hex8 id="4" mat="2">     4,    70,    76,    10,     5,    71,    77,    11</hex8>
			<hex8 id="5" mat="2">     5,    71,    77,    11,     6,    72,    78,    12</hex8>
			<hex8 id="6" mat="2">     7,    73,    79,    13,     8,    74,    80,    14</hex8>
			<hex8 id="7" mat="2">     8,    74,    80,    14,     9,    75,    81,    15</hex8>
			<hex8 id="8" mat="2">     9,    75,    81,    15,    10,    76,    82,    16</hex8>
			<hex8 id="9" mat="2">    10,    76,    82,    16,    11,    77,    83,    17</hex8>
			<hex8 id="10" mat="2">    11,    77,    83,    17,    12,    78,    84,    18</hex8>
			<hex8 id="11" mat="2">    13,    79,    85,    19,    14,    80,    86,    20</hex8>
			<hex8 id="12" mat="2">    14,    80,    86,    20,    15,    81,    87,    21</hex8>
			<hex8 id="13" mat="2">    15,    81,    87,    21,    16,    82,    88,    22</hex8>
			<hex8 id="14" mat="2">    16,    82,    88,    22,    17,    83,    89,    23</hex8>
			<hex8 id="15" mat="2">    17,    83,    89,    23,    18,    84,    90,    24</hex8>
			<hex8 id="16" mat="2">    19,    85,    91,    25,    20,    86,    92,    26</hex8>
			<hex8 id="17" mat="2">    20,    86,    92,    26,    21,    87,    93,    27</hex8>
			<hex8 id="18" mat="2">    21,    87,    93,    27,    22,    88,    94,    28</hex8>
			<hex8 id="19" mat="2">    22,    88,    94,    28,    23,    89,    95,    29</hex8>
			<hex8 id="20" mat="2">    23,    89,    95,    29,    24,    90,    96,    30</hex8>
<!-- ... 1240 like lines cut -->
		</Elements>
	</Geometry>
	<Boundary>
		<fix>
			<node id="1" bc="xyz"></node>
			<node id="6" bc="xy"></node>
			<node id="7" bc="xyz"></node>
			<node id="12" bc="xy"></node>
			<node id="13" bc="xyz"></node>
			<node id="18" bc="xy"></node>
			<node id="19" bc="xyz"></node>
			<node id="24" bc="xy"></node>
			<node id="25" bc="xyz"></node>
			<node id="30" bc="xy"></node>
			<node id="31" bc="xyz"></node>
			<node id="36" bc="xy"></node>
			<node id="37" bc="xyz"></node>
			<node id="42" bc="xy"></node>
			<node id="43" bc="xyz"></node>
			<node id="48" bc="xy"></node>
			<node id="49" bc="xyz"></node>
			<node id="54" bc="xy"></node>
			<node id="55" bc="xyz"></node>
			<node id="60" bc="xy"></node>
			<node id="61" bc="xyz"></node>
			<node id="66" bc="xy"></node>
			<node id="67" bc="xyz"></node>
			<node id="72" bc="xy"></node>
			<node id="73" bc="xyz"></node>
			<node id="78" bc="xy"></node>
			<node id="79" bc="xyz"></node>
			<node id="84" bc="xy"></node>
			<node id="85" bc="xyz"></node>
			<node id="90" bc="xy"></node>
			<node id="91" bc="xyz"></node>
			<node id="96" bc="xy"></node>
			<node id="97" bc="xyz"></node>
			<node id="102" bc="xy"></node>
			<node id="103" bc="xyz"></node>
			<node id="108" bc="xy"></node>
			<node id="109" bc="xyz"></node>
			<node id="114" bc="xy"></node>
			<node id="115" bc="xyz"></node>
			<node id="120" bc="xy"></node>
<!-- ... 422 like lines cut -->
			<node id="1387" bc="y"></node>
			<node id="1388" bc="y"></node>
			<node id="1389" bc="y"></node>
			<node id="1390" bc="y"></node>
			<node id="1391" bc="y"></node>
			<node id="1392" bc="y"></node>
			<node id="1393" bc="y"></node>
			<node id="1394" bc="y"></node>
			<node id="1395" bc="y"></node>
			<node id="1396" bc="y"></node>
			<node id="1397" bc="y"></node>
			<node id="1398" bc="y"></node>
			<node id="1399" bc="y"></node>
			<node id="1400" bc="y"></node>
			<node id="1401" bc="y"></node>
			<node id="1402" bc="y"></node>
			<node id="1403" bc="y"></node>
			<node id="1404" bc="y"></node>
			<node id="1405" bc="y"></node>
			<node id="1406" bc="y"></node>
<!-- ... 574 like lines cut -->
		</fix>
		<prescribe>
			<node id="1389" bc="x" lc="2">1</node>
			<node id="1389" bc="z" lc="3">1</node>
			<node id="1390" bc="x" lc="2">1</node>
			<node id="1390" bc="z" lc="3">1</node>
			<node id="1391" bc="x" lc="2">1</node>
			<node id="1391" bc="z" lc="3">1</node>
			<node id="1392" bc="x" lc="2">1</node>
			<node id="1392" bc="z" lc="3">1</node>
			<node id="1443" bc="x" lc="2">1</node>
			<node id="1443" bc="z" lc="3">1</node>
			<node id="1444" bc="x" lc="2">1</node>
			<node id="1444" bc="z" lc="3">1</node>
			<node id="1445" bc="x" lc="2">1</node>
			<node id="1445" bc="z" lc="3">1</node>
			<node id="1446" bc="x" lc="2">1</node>
			<node id="1446" bc="z" lc="3">1</node>
			<node id="1497" bc="x" lc="2">1</node>
			<node id="1497" bc="z" lc="3">1</node>
			<node id="1498" bc="x" lc="2">1</node>
			<node id="1498" bc="z" lc="3">1</node>
			<node id="1499" bc="x" lc="2">1</node>
			<node id="1499" bc="z" lc="3">1</node>
			<node id="1500" bc="x" lc="2">1</node>
			<node id="1500" bc="z" lc="3">1</node>
			<node id="1551" bc="x" lc="2">1</node>
			<node id="1551" bc="z" lc="3">1</node>
			<node id="1552" bc="x" lc="2">1</node>
			<node id="1552" bc="z" lc="3">1</node>
			<node id="1553" bc="x" lc="2">1</node>
			<node id="1553" bc="z" lc="3">1</node>
			<node id="1554" bc="x" lc="2">1</node>
			<node id="1554" bc="z" lc="3">1</node>
			<node id="1605" bc="x" lc="2">1</node>
			<node id="1605" bc="z" lc="3">1</node>
			<node id="1606" bc="x" lc="2">1</node>
			<node id="1606" bc="z" lc="3">1</node>
			<node id="1607" bc="x" lc="2">1</node>
			<node id="1607" bc="z" lc="3">1</node>
			<node id="1608" bc="x" lc="2">1</node>
			<node id="1608" bc="z" lc="3">1</node>
<!-- ... 48 like lines cut -->
		</prescribe>
		<contact type="sliding2">
			<tolerance>0.05</tolerance>
			<penalty>0.01</penalty>
			<auto_penalty>1</auto_penalty>
			<two_pass>1</two_pass>
			<laugon>0</laugon>
			<symmetric_stiffness>1</symmetric_stiffness>
			<surface type="master">
				<quad4 id="1">     6,    72,    78,    12</quad4>
				<quad4 id="2">    12,    78,    84,    18</quad4>
				<quad4 id="3">    18,    84,    90,    24</quad4>
				<quad4 id="4">    24,    90,    96,    30</quad4>
				<quad4 id="5">    30,    96,   102,    36</quad4>
				<quad4 id="6">    36,   102,   108,    42</quad4>
				<quad4 id="7">    42,   108,   114,    48</quad4>
				<quad4 id="8">    48,   114,   120,    54</quad4>
				<quad4 id="9">    54,   120,   126,    60</quad4>
				<quad4 id="10">    60,   126,   132,    66</quad4>
				<quad4 id="11">    72,   138,   144,    78</quad4>
				<quad4 id="12">    78,   144,   150,    84</quad4>
				<quad4 id="13">    84,   150,   156,    90</quad4>
				<quad4 id="14">    90,   156,   162,    96</quad4>
				<quad4 id="15">    96,   162,   168,   102</quad4>
				<quad4 id="16">   102,   168,   174,   108</quad4>
				<quad4 id="17">   108,   174,   180,   114</quad4>
				<quad4 id="18">   114,   180,   186,   120</quad4>
				<quad4 id="19">   120,   186,   192,   126</quad4>
				<quad4 id="20">   126,   192,   198,   132</quad4>
<!-- ... 180 like lines cut -->
			</surface>
			<surface type="slave">
				<quad4 id="201">  1388,  1390,  1444,  1442</quad4>
				<quad4 id="202">  1392,  1394,  1448,  1446</quad4>
				<quad4 id="203">  1394,  1396,  1450,  1448</quad4>
				<quad4 id="204">  1396,  1398,  1452,  1450</quad4>
				<quad4 id="205">  1398,  1400,  1454,  1452</quad4>
				<quad4 id="206">  1400,  1402,  1456,  1454</quad4>
				<quad4 id="207">  1402,  1404,  1458,  1456</quad4>
				<quad4 id="208">  1404,  1406,  1460,  1458</quad4>
				<quad4 id="209">  1406,  1408,  1462,  1460</quad4>
				<quad4 id="210">  1408,  1410,  1464,  1462</quad4>
				<quad4 id="211">  1410,  1412,  1466,  1464</quad4>
				<quad4 id="212">  1412,  1414,  1468,  1466</quad4>
				<quad4 id="213">  1414,  1416,  1470,  1468</quad4>
				<quad4 id="214">  1416,  1418,  1472,  1470</quad4>
				<quad4 id="215">  1418,  1420,  1474,  1472</quad4>
				<quad4 id="216">  1420,  1422,  1476,  1474</quad4>
				<quad4 id="217">  1422,  1424,  1478,  1476</quad4>
				<quad4 id="218">  1424,  1426,  1480,  1478</quad4>
				<quad4 id="219">  1426,  1428,  1482,  1480</quad4>
				<quad4 id="220">  1428,  1430,  1484,  1482</quad4>
<!-- ... 240 like lines cut -->
			</surface>
		</contact>
	</Boundary>
	<LoadData>
		<loadcurve id="1">
			<loadpoint>0,0</loadpoint>
			<loadpoint>1,0.1</loadpoint>
			<loadpoint>4,0.1</loadpoint>
		</loadcurve>
		<loadcurve id="2">
			<loadpoint>0,0</loadpoint>
			<loadpoint>1,0</loadpoint>
			<loadpoint>4,3</loadpoint>
		</loadcurve>
		<loadcurve id="3">
			<loadpoint>0,0</loadpoint>
			<loadpoint>1,-0.35</loadpoint>
			<loadpoint>4,-0.35</loadpoint>
		</loadcurve>
	</LoadData>
	<Output>
		<plotfile type="febio">
			<map field="velocity">CONTACT_TRACTION</map>
		</plotfile>
	    <logfile>
			<element_data data="sz">1140</element_data>
		</logfile>
	</Output>
</febio_spec>
