<?xml version="1.0" encoding="ISO-8859-1"?>
<!--
Problem Description:
	A quarter disk is compressed by a rigid wall with a prescribed displacement of 0.5
	units in the y-direction from time t=0 to t=0.5 and then returning to 0 displacement
	from time t=0.5 to t=1.
Main Features:
	Rigid Wall Contact
Secondary Features:
	Nodal constraints using prescribed displacement of 0.
Materials:
	Neo-Hookean
Degrees of Freedom: 212
Results:
	Steps Completed: 12
	Equilibrium Iterations: 105
	Right Hand Evaluations: 190
	Siffness Reformations: 18
	Other:
		The corner of the disk touching the rigid wall has a y-displacement of
		0.493 at time t=0.5
Comments:
	
-->
<febio_spec version="1.2">
	<Module type="solid"/>
	<Control>
		<title>Rigid Wall Compression of Disk</title>
		<time_steps>10</time_steps>
		<step_size>0.1</step_size>
		<max_refs>15</max_refs>
		<max_ups>10</max_ups>
		<dtol>0.001</dtol>
		<etol>0.01</etol>
		<rtol>0</rtol>
		<lstol>0.9</lstol>
		<time_stepper>
			<dtmin>0.01</dtmin>
			<dtmax lc="3"></dtmax>
			<max_retries>5</max_retries>
			<opt_iter>10</opt_iter>
		</time_stepper>
	</Control>
	<Material>
		<material id="1" name="Material 1" type="neo-Hookean">
			<E>1</E>
			<v>0.4</v>
		</material>
	</Material>
	<Geometry>
		<Nodes>
			<node id="1"> 1.3997721e-009, 6.4644661e-001, 0.0000000e+000</node>
			<node id="2"> 1.3997721e-009, 7.6429774e-001, 0.0000000e+000</node>
			<node id="3"> 1.3997721e-009, 8.8214887e-001, 0.0000000e+000</node>
			<node id="4"> 1.3997721e-009, 1.0000000e+000, 0.0000000e+000</node>
			<node id="5"> 1.1785113e-001, 6.4644661e-001, 0.0000000e+000</node>
			<node id="6"> 1.1785113e-001, 7.6429774e-001, 0.0000000e+000</node>
			<node id="7"> 1.1785113e-001, 8.8214887e-001, 0.0000000e+000</node>
			<node id="8"> 1.1785113e-001, 1.0000000e+000, 0.0000000e+000</node>
			<node id="9"> 2.3570226e-001, 6.4644661e-001, 0.0000000e+000</node>
			<node id="10"> 2.3570226e-001, 7.6429774e-001, 0.0000000e+000</node>
			<node id="11"> 2.3570226e-001, 8.8214887e-001, 0.0000000e+000</node>
			<node id="12"> 2.3570226e-001, 1.0000000e+000, 0.0000000e+000</node>
			<node id="13"> 3.5355339e-001, 6.4644661e-001, 0.0000000e+000</node>
			<node id="14"> 3.5355339e-001, 7.6429774e-001, 0.0000000e+000</node>
			<node id="15"> 3.5355339e-001, 8.8214887e-001, 0.0000000e+000</node>
			<node id="16"> 3.5355339e-001, 1.0000000e+000, 0.0000000e+000</node>
			<node id="17">-1.2230971e-008, 5.3870551e-001, 0.0000000e+000</node>
			<node id="18">-2.5861715e-008, 4.3096441e-001, 0.0000000e+000</node>
			<node id="19">-3.9492459e-008, 3.2322330e-001, 0.0000000e+000</node>
			<node id="20">-5.3123202e-008, 2.1548220e-001, 0.0000000e+000</node>
<!-- ... 96 like lines cut -->
		</Nodes>
		<Elements>
			<hex8 id="1" mat="1">     1,     5,     6,     2,    59,    63,    64,    60</hex8>
			<hex8 id="2" mat="1">     2,     6,     7,     3,    60,    64,    65,    61</hex8>
			<hex8 id="3" mat="1">     3,     7,     8,     4,    61,    65,    66,    62</hex8>
			<hex8 id="4" mat="1">     5,     9,    10,     6,    63,    67,    68,    64</hex8>
			<hex8 id="5" mat="1">     6,    10,    11,     7,    64,    68,    69,    65</hex8>
			<hex8 id="6" mat="1">     7,    11,    12,     8,    65,    69,    70,    66</hex8>
			<hex8 id="7" mat="1">     9,    13,    14,    10,    67,    71,    72,    68</hex8>
			<hex8 id="8" mat="1">    10,    14,    15,    11,    68,    72,    73,    69</hex8>
			<hex8 id="9" mat="1">    11,    15,    16,    12,    69,    73,    74,    70</hex8>
			<hex8 id="10" mat="1">     1,    17,    23,     5,    59,    75,    81,    63</hex8>
			<hex8 id="11" mat="1">    17,    18,    24,    23,    75,    76,    82,    81</hex8>
			<hex8 id="12" mat="1">    18,    19,    25,    24,    76,    77,    83,    82</hex8>
			<hex8 id="13" mat="1">    19,    20,    26,    25,    77,    78,    84,    83</hex8>
			<hex8 id="14" mat="1">    20,    21,    27,    26,    78,    79,    85,    84</hex8>
			<hex8 id="15" mat="1">    21,    22,    28,    27,    79,    80,    86,    85</hex8>
			<hex8 id="16" mat="1">     5,    23,    29,     9,    63,    81,    87,    67</hex8>
			<hex8 id="17" mat="1">    23,    24,    30,    29,    81,    82,    88,    87</hex8>
			<hex8 id="18" mat="1">    24,    25,    31,    30,    82,    83,    89,    88</hex8>
			<hex8 id="19" mat="1">    25,    26,    32,    31,    83,    84,    90,    89</hex8>
			<hex8 id="20" mat="1">    26,    27,    33,    32,    84,    85,    91,    90</hex8>
<!-- ... 25 like lines cut -->
		</Elements>
	</Geometry>
	<Boundary>
		<fix>
			<node id="1" bc="xz"></node>
			<node id="2" bc="xz"></node>
			<node id="3" bc="xz"></node>
			<node id="4" bc="xz"></node>
			<node id="5" bc="z"></node>
			<node id="6" bc="z"></node>
			<node id="7" bc="z"></node>
			<node id="8" bc="z"></node>
			<node id="9" bc="z"></node>
			<node id="10" bc="z"></node>
			<node id="11" bc="z"></node>
			<node id="12" bc="z"></node>
			<node id="13" bc="z"></node>
			<node id="14" bc="z"></node>
			<node id="15" bc="z"></node>
			<node id="16" bc="z"></node>
			<node id="17" bc="xz"></node>
			<node id="18" bc="xz"></node>
			<node id="19" bc="xz"></node>
			<node id="20" bc="xz"></node>
			<node id="21" bc="xz"></node>
			<node id="22" bc="xz"></node>
			<node id="23" bc="z"></node>
			<node id="24" bc="z"></node>
			<node id="25" bc="z"></node>
			<node id="26" bc="z"></node>
			<node id="27" bc="z"></node>
			<node id="28" bc="z"></node>
			<node id="29" bc="z"></node>
			<node id="30" bc="z"></node>
			<node id="31" bc="z"></node>
			<node id="32" bc="z"></node>
			<node id="33" bc="z"></node>
			<node id="34" bc="z"></node>
			<node id="35" bc="z"></node>
			<node id="36" bc="z"></node>
			<node id="37" bc="z"></node>
			<node id="38" bc="z"></node>
			<node id="39" bc="z"></node>
			<node id="40" bc="z"></node>
			<node id="41" bc="z"></node>
			<node id="42" bc="z"></node>
<!-- ... 16 like lines cut -->
			<node id="59" bc="xz"></node>
			<node id="60" bc="xz"></node>
			<node id="61" bc="xz"></node>
			<node id="62" bc="xz"></node>
			<node id="63" bc="z"></node>
			<node id="64" bc="z"></node>
			<node id="65" bc="z"></node>
			<node id="66" bc="z"></node>
			<node id="67" bc="z"></node>
			<node id="68" bc="z"></node>
			<node id="69" bc="z"></node>
			<node id="70" bc="z"></node>
			<node id="71" bc="z"></node>
			<node id="72" bc="z"></node>
			<node id="73" bc="z"></node>
			<node id="74" bc="z"></node>
			<node id="75" bc="xz"></node>
			<node id="76" bc="xz"></node>
			<node id="77" bc="xz"></node>
			<node id="78" bc="xz"></node>
			<node id="79" bc="xz"></node>
			<node id="80" bc="xz"></node>
			<node id="81" bc="z"></node>
			<node id="82" bc="z"></node>
			<node id="83" bc="z"></node>
			<node id="84" bc="z"></node>
			<node id="85" bc="z"></node>
			<node id="86" bc="z"></node>
			<node id="87" bc="z"></node>
			<node id="88" bc="z"></node>
			<node id="89" bc="z"></node>
			<node id="90" bc="z"></node>
			<node id="91" bc="z"></node>
			<node id="92" bc="z"></node>
			<node id="93" bc="z"></node>
			<node id="94" bc="z"></node>
			<node id="95" bc="z"></node>
			<node id="96" bc="z"></node>
			<node id="97" bc="z"></node>
			<node id="98" bc="z"></node>
			<node id="99" bc="z"></node>
			<node id="100" bc="z"></node>
<!-- ... 16 like lines cut -->
		</fix>
		<prescribe>
			<node id="4" bc="y" lc="1">1</node>
			<node id="8" bc="y" lc="1">1</node>
			<node id="12" bc="y" lc="1">1</node>
			<node id="16" bc="y" lc="1">1</node>
			<node id="53" bc="y" lc="1">1</node>
			<node id="54" bc="y" lc="1">1</node>
			<node id="55" bc="y" lc="1">1</node>
			<node id="56" bc="y" lc="1">1</node>
			<node id="57" bc="y" lc="1">1</node>
			<node id="58" bc="y" lc="1">1</node>
			<node id="62" bc="y" lc="1">1</node>
			<node id="66" bc="y" lc="1">1</node>
			<node id="70" bc="y" lc="1">1</node>
			<node id="74" bc="y" lc="1">1</node>
			<node id="111" bc="y" lc="1">1</node>
			<node id="112" bc="y" lc="1">1</node>
			<node id="113" bc="y" lc="1">1</node>
			<node id="114" bc="y" lc="1">1</node>
			<node id="115" bc="y" lc="1">1</node>
			<node id="116" bc="y" lc="1">1</node>
		</prescribe>
		<contact type="rigid_wall">
			<laugon>0</laugon>
			<tolerance>0.01</tolerance>
			<penalty>150</penalty>
			<plane lc="2">0,1,0,0</plane>
			<surface>
				<quad4 id="1">    22,    28,    86,    80</quad4>
				<quad4 id="2">    28,    34,    92,    86</quad4>
				<quad4 id="3">    34,    40,    98,    92</quad4>
				<quad4 id="4">    40,    46,   104,    98</quad4>
				<quad4 id="5">    46,    52,   110,   104</quad4>
				<quad4 id="6">    52,    58,   116,   110</quad4>
			</surface>
		</contact>
	</Boundary>
	<LoadData>
		<loadcurve id="1">
			<loadpoint>0,0</loadpoint>
			<loadpoint>1,0</loadpoint>
		</loadcurve>
		<loadcurve id="2">
			<loadpoint>0,0</loadpoint>
			<loadpoint>0.5,0.5</loadpoint>
			<loadpoint>1,0</loadpoint>
		</loadcurve>
		<loadcurve id="3" type="step">
			<loadpoint>0,0</loadpoint>
			<loadpoint>0.6,0.1</loadpoint>
			<loadpoint>1,0.1</loadpoint>		
		</loadcurve>
	</LoadData>
	<Output>
		<plotfile type="febio"></plotfile>
	    <logfile>
			<element_data data="sy">15</element_data>
		</logfile>	
    </Output>
</febio_spec>
