<?xml version="1.0" encoding="ISO-8859-1"?>
<!--
Problem Description:
	Block with prescribed displacement of 2.5 units in z-direction from time t=0 to t=1
	sliding and compressing against inclined rigid body plane.
Main Features:
	Contact with sliding_with_gaps algorithm.
Secondary Features:
	Load curve for contact penalty
Materials:
	Neo-Hookean
	Rigid Bodies
Degrees of Freedom: 1924
Results:
	Solver: Pardiso
	Steps Completed: 11
	Equilibrium Iterations: 71
	Right Hand Evaluations: 118
	Siffness Reformations: 13
	Other:
		The effective strain on the lead top edge (node 11) is 0.369 at time t=1.
Comments:
	
-->
<febio_spec version="1.2">
	<Module type="solid"/>
	<Control>
		<title>Sliding Contact on Inclined Plane</title>
		<time_steps>10</time_steps>
		<step_size>0.1</step_size>
		<max_refs>15</max_refs>
		<max_ups>10</max_ups>
		<dtol>0.001</dtol>
		<etol>0.01</etol>
		<rtol>0</rtol>
		<lstol>0.9</lstol>
		<time_stepper>
			<dtmin>0.01</dtmin>
			<dtmax>0.1</dtmax>
			<max_retries>5</max_retries>
			<opt_iter>10</opt_iter>
		</time_stepper>
	</Control>
	<Material>
		<material id="1" name="Material 4" type="neo-Hookean">
			<E>1</E>
			<v>0</v>
		</material>
		<material id="2" name="Material 5" type="rigid body">
			<density>1</density>
		</material>
	</Material>
	<Geometry>
		<Nodes>
			<node id="1"> 0.0000000e+000,-5.0000000e-001, 0.0000000e+000</node>
			<node id="2"> 0.0000000e+000,-5.0000000e-001, 1.0000000e-001</node>
			<node id="3"> 0.0000000e+000,-5.0000000e-001, 2.0000000e-001</node>
			<node id="4"> 0.0000000e+000,-5.0000000e-001, 3.0000000e-001</node>
			<node id="5"> 0.0000000e+000,-5.0000000e-001, 4.0000000e-001</node>
			<node id="6"> 0.0000000e+000,-5.0000000e-001, 5.0000000e-001</node>
			<node id="7"> 0.0000000e+000,-5.0000000e-001, 6.0000000e-001</node>
			<node id="8"> 0.0000000e+000,-5.0000000e-001, 7.0000000e-001</node>
			<node id="9"> 0.0000000e+000,-5.0000000e-001, 8.0000000e-001</node>
			<node id="10"> 0.0000000e+000,-5.0000000e-001, 9.0000000e-001</node>
			<node id="11"> 0.0000000e+000,-5.0000000e-001, 1.0000000e+000</node>
			<node id="12"> 0.0000000e+000,-4.0000000e-001, 0.0000000e+000</node>
			<node id="13"> 0.0000000e+000,-4.0000000e-001, 1.0000000e-001</node>
			<node id="14"> 0.0000000e+000,-4.0000000e-001, 2.0000000e-001</node>
			<node id="15"> 0.0000000e+000,-4.0000000e-001, 3.0000000e-001</node>
			<node id="16"> 0.0000000e+000,-4.0000000e-001, 4.0000000e-001</node>
			<node id="17"> 0.0000000e+000,-4.0000000e-001, 5.0000000e-001</node>
			<node id="18"> 0.0000000e+000,-4.0000000e-001, 6.0000000e-001</node>
			<node id="19"> 0.0000000e+000,-4.0000000e-001, 7.0000000e-001</node>
			<node id="20"> 0.0000000e+000,-4.0000000e-001, 8.0000000e-001</node>
<!-- ... 714 like lines cut -->
		</Nodes>
		<Elements>
			<hex8 id="1" mat="1">     1,   122,   133,    12,     2,   123,   134,    13</hex8>
			<hex8 id="2" mat="1">     2,   123,   134,    13,     3,   124,   135,    14</hex8>
			<hex8 id="3" mat="1">     3,   124,   135,    14,     4,   125,   136,    15</hex8>
			<hex8 id="4" mat="1">     4,   125,   136,    15,     5,   126,   137,    16</hex8>
			<hex8 id="5" mat="1">     5,   126,   137,    16,     6,   127,   138,    17</hex8>
			<hex8 id="6" mat="1">     6,   127,   138,    17,     7,   128,   139,    18</hex8>
			<hex8 id="7" mat="1">     7,   128,   139,    18,     8,   129,   140,    19</hex8>
			<hex8 id="8" mat="1">     8,   129,   140,    19,     9,   130,   141,    20</hex8>
			<hex8 id="9" mat="1">     9,   130,   141,    20,    10,   131,   142,    21</hex8>
			<hex8 id="10" mat="1">    10,   131,   142,    21,    11,   132,   143,    22</hex8>
			<hex8 id="11" mat="1">    12,   133,   144,    23,    13,   134,   145,    24</hex8>
			<hex8 id="12" mat="1">    13,   134,   145,    24,    14,   135,   146,    25</hex8>
			<hex8 id="13" mat="1">    14,   135,   146,    25,    15,   136,   147,    26</hex8>
			<hex8 id="14" mat="1">    15,   136,   147,    26,    16,   137,   148,    27</hex8>
			<hex8 id="15" mat="1">    16,   137,   148,    27,    17,   138,   149,    28</hex8>
			<hex8 id="16" mat="1">    17,   138,   149,    28,    18,   139,   150,    29</hex8>
			<hex8 id="17" mat="1">    18,   139,   150,    29,    19,   140,   151,    30</hex8>
			<hex8 id="18" mat="1">    19,   140,   151,    30,    20,   141,   152,    31</hex8>
			<hex8 id="19" mat="1">    20,   141,   152,    31,    21,   142,   153,    32</hex8>
			<hex8 id="20" mat="1">    21,   142,   153,    32,    22,   143,   154,    33</hex8>
<!-- ... 481 like lines cut -->
		</Elements>
	</Geometry>
	<Boundary>
		<fix>
			<node id="1" bc="xy"></node>
			<node id="2" bc="xy"></node>
			<node id="3" bc="xy"></node>
			<node id="4" bc="xy"></node>
			<node id="5" bc="xy"></node>
			<node id="6" bc="xy"></node>
			<node id="7" bc="xy"></node>
			<node id="8" bc="xy"></node>
			<node id="9" bc="xy"></node>
			<node id="10" bc="xy"></node>
			<node id="11" bc="xy"></node>
			<node id="12" bc="x"></node>
			<node id="13" bc="x"></node>
			<node id="14" bc="x"></node>
			<node id="15" bc="x"></node>
			<node id="16" bc="x"></node>
			<node id="17" bc="x"></node>
			<node id="18" bc="x"></node>
			<node id="19" bc="x"></node>
			<node id="20" bc="x"></node>
			<node id="21" bc="x"></node>
			<node id="22" bc="x"></node>
			<node id="23" bc="x"></node>
			<node id="24" bc="x"></node>
			<node id="25" bc="x"></node>
			<node id="26" bc="x"></node>
			<node id="27" bc="x"></node>
			<node id="28" bc="x"></node>
			<node id="29" bc="x"></node>
			<node id="30" bc="x"></node>
			<node id="31" bc="x"></node>
<!-- ... 79 like lines cut -->
			<node id="111" bc="xy"></node>
			<node id="112" bc="xy"></node>
			<node id="113" bc="xy"></node>
			<node id="114" bc="xy"></node>
			<node id="115" bc="xy"></node>
			<node id="116" bc="xy"></node>
			<node id="117" bc="xy"></node>
			<node id="118" bc="xy"></node>
			<node id="119" bc="xy"></node>
			<node id="120" bc="xy"></node>
			<node id="121" bc="xy"></node>
			<node id="122" bc="y"></node>
			<node id="123" bc="y"></node>
			<node id="124" bc="y"></node>
			<node id="125" bc="y"></node>
			<node id="126" bc="y"></node>
			<node id="127" bc="y"></node>
			<node id="128" bc="y"></node>
			<node id="129" bc="y"></node>
			<node id="130" bc="y"></node>
			<node id="131" bc="y"></node>
			<node id="132" bc="y"></node>
			<node id="232" bc="y"></node>
			<node id="233" bc="y"></node>
			<node id="234" bc="y"></node>
			<node id="235" bc="y"></node>
			<node id="236" bc="y"></node>
			<node id="237" bc="y"></node>
			<node id="238" bc="y"></node>
			<node id="239" bc="y"></node>
			<node id="240" bc="y"></node>
<!-- ... 91 like lines cut -->
		</fix>
		<prescribe>
			<node id="1" bc="z" lc="1">1</node>
			<node id="12" bc="z" lc="1">1</node>
			<node id="23" bc="z" lc="1">1</node>
			<node id="34" bc="z" lc="1">1</node>
			<node id="45" bc="z" lc="1">1</node>
			<node id="56" bc="z" lc="1">1</node>
			<node id="67" bc="z" lc="1">1</node>
			<node id="78" bc="z" lc="1">1</node>
			<node id="89" bc="z" lc="1">1</node>
			<node id="100" bc="z" lc="1">1</node>
			<node id="111" bc="z" lc="1">1</node>
			<node id="122" bc="z" lc="1">1</node>
			<node id="133" bc="z" lc="1">1</node>
			<node id="144" bc="z" lc="1">1</node>
			<node id="155" bc="z" lc="1">1</node>
			<node id="166" bc="z" lc="1">1</node>
			<node id="177" bc="z" lc="1">1</node>
			<node id="188" bc="z" lc="1">1</node>
			<node id="199" bc="z" lc="1">1</node>
			<node id="210" bc="z" lc="1">1</node>
<!-- ... 46 like lines cut -->
		</prescribe>
		<contact type="sliding_with_gaps">
			<laugon>0</laugon>
			<tolerance>0.02</tolerance>
			<penalty lc="2">1</penalty>
			<two_pass>0</two_pass>
			<surface type="master">
				<quad4 id="1">   729,   727,   728,   730</quad4>
			</surface>
			<surface type="slave">
				<quad4 id="2">   606,   617,   618,   607</quad4>
				<quad4 id="3">   607,   618,   619,   608</quad4>
				<quad4 id="4">   608,   619,   620,   609</quad4>
				<quad4 id="5">   609,   620,   621,   610</quad4>
				<quad4 id="6">   610,   621,   622,   611</quad4>
				<quad4 id="7">   611,   622,   623,   612</quad4>
				<quad4 id="8">   612,   623,   624,   613</quad4>
				<quad4 id="9">   613,   624,   625,   614</quad4>
				<quad4 id="10">   614,   625,   626,   615</quad4>
				<quad4 id="11">   615,   626,   627,   616</quad4>
				<quad4 id="12">   617,   628,   629,   618</quad4>
				<quad4 id="13">   618,   629,   630,   619</quad4>
				<quad4 id="14">   619,   630,   631,   620</quad4>
				<quad4 id="15">   620,   631,   632,   621</quad4>
				<quad4 id="16">   621,   632,   633,   622</quad4>
				<quad4 id="17">   622,   633,   634,   623</quad4>
				<quad4 id="18">   623,   634,   635,   624</quad4>
				<quad4 id="19">   624,   635,   636,   625</quad4>
				<quad4 id="20">   625,   636,   637,   626</quad4>
				<quad4 id="21">   626,   637,   638,   627</quad4>
<!-- ... 80 like lines cut -->
			</surface>
		</contact>
	</Boundary>
	<Constraints>
		<rigid_body mat="2">
			<trans_x type="fixed"></trans_x>
			<trans_y type="fixed"></trans_y>
			<trans_z type="fixed"></trans_z>
			<rot_x type="fixed"></rot_x>
			<rot_y type="fixed"></rot_y>
			<rot_z type="fixed"></rot_z>
		</rigid_body>
	</Constraints>
	<LoadData>
		<loadcurve id="1">
			<loadpoint>0,0</loadpoint>
			<loadpoint>1,2.5</loadpoint>
		</loadcurve>
		<loadcurve id="2">
			<loadpoint>0,10</loadpoint>
			<loadpoint>0.8,150</loadpoint>
			<loadpoint>1.0,200</loadpoint>
		</loadcurve>
	</LoadData>
	<Output>
		<plotfile type="febio"></plotfile>
        <logfile>
			<element_data data="sz">1</element_data>
		</logfile>	
	</Output>
</febio_spec>
