<?xml version="1.0" encoding="ISO-8859-1"?>
<!--
Problem Description:
	A Rigid ball with a prescribed displacement of -5.0 units in the z-direction
	pushes down and slides on a cantilever board.
Main Features:
	Contact with sliding_with_gaps algorithm
	Rigid Bodies
Secondary Features:
	None
Materials:
	Neo-Hookean
	Rigid Body
Degrees of Freedom: 751
Results:
	Solver: Pardiso
	Steps Completed: 34
	Equilibrium Iterations: 406
	Right Hand Evaluations: 540
	Siffness Reformations: 63
	Other:
		The cantilever has a maximum z-displacement of -2.15 (node 259) at time t=0.3963
Comments:
	Convergence and contact penetration are better without using augmented Lagrangian.
-->
<febio_spec version="1.2">
	<Control>
		<title>Rigid Ball on Cantilever Board</title>
		<time_steps>50</time_steps>
		<step_size>0.02</step_size>
		<max_refs>15</max_refs>
		<max_ups>10</max_ups>
		<dtol>0.001</dtol>
		<etol>0.01</etol>
		<rtol>0</rtol>
		<lstol>0.9</lstol>
		<pressure_stiffness>1</pressure_stiffness>
		<time_stepper>
			<dtmin>0.01</dtmin>
			<dtmax lc="2"></dtmax>
			<max_retries>5</max_retries>
			<opt_iter>10</opt_iter>
		</time_stepper>
		<plot_level>PLOT_DEFAULT</plot_level>
	</Control>
	<Material>
		<material id="1" name="Material 2" type="neo-Hookean">
			<E>10</E>
			<v>0.3</v>
		</material>
		<material id="2" name="Material 3" type="rigid body">
			<density>1</density>
		</material>
	</Material>
	<Geometry>
		<Nodes>
			<node id="1"> 1.0740450e-001,-5.0000000e-001, 0.0000000e+000</node>
			<node id="2"> 1.0740450e-001,-5.0000000e-001, 2.0000000e-001</node>
			<node id="3"> 1.0740450e-001,-2.5000000e-001, 0.0000000e+000</node>
			<node id="4"> 1.0740450e-001,-2.5000000e-001, 2.0000000e-001</node>
			<node id="5"> 1.0740450e-001, 0.0000000e+000, 0.0000000e+000</node>
			<node id="6"> 1.0740450e-001, 0.0000000e+000, 2.0000000e-001</node>
			<node id="7"> 1.0740450e-001, 2.5000000e-001, 0.0000000e+000</node>
			<node id="8"> 1.0740450e-001, 2.5000000e-001, 2.0000000e-001</node>
			<node id="9"> 1.0740450e-001, 5.0000000e-001, 0.0000000e+000</node>
			<node id="10"> 1.0740450e-001, 5.0000000e-001, 2.0000000e-001</node>
			<node id="11"> 3.0740450e-001,-5.0000000e-001, 0.0000000e+000</node>
			<node id="12"> 3.0740450e-001,-5.0000000e-001, 2.0000000e-001</node>
			<node id="13"> 3.0740450e-001,-2.5000000e-001, 0.0000000e+000</node>
			<node id="14"> 3.0740450e-001,-2.5000000e-001, 2.0000000e-001</node>
			<node id="15"> 3.0740450e-001, 0.0000000e+000, 0.0000000e+000</node>
			<node id="16"> 3.0740450e-001, 0.0000000e+000, 2.0000000e-001</node>
			<node id="17"> 3.0740450e-001, 2.5000000e-001, 0.0000000e+000</node>
			<node id="18"> 3.0740450e-001, 2.5000000e-001, 2.0000000e-001</node>
			<node id="19"> 3.0740450e-001, 5.0000000e-001, 0.0000000e+000</node>
			<node id="20"> 3.0740450e-001, 5.0000000e-001, 2.0000000e-001</node>
<!-- ... 1891 like lines cut -->
		</Nodes>
		<Elements>
			<hex8 id="1" mat="1">     1,    11,    13,     3,     2,    12,    14,     4</hex8>
			<hex8 id="2" mat="1">     3,    13,    15,     5,     4,    14,    16,     6</hex8>
			<hex8 id="3" mat="1">     5,    15,    17,     7,     6,    16,    18,     8</hex8>
			<hex8 id="4" mat="1">     7,    17,    19,     9,     8,    18,    20,    10</hex8>
			<hex8 id="5" mat="1">    11,    21,    23,    13,    12,    22,    24,    14</hex8>
			<hex8 id="6" mat="1">    13,    23,    25,    15,    14,    24,    26,    16</hex8>
			<hex8 id="7" mat="1">    15,    25,    27,    17,    16,    26,    28,    18</hex8>
			<hex8 id="8" mat="1">    17,    27,    29,    19,    18,    28,    30,    20</hex8>
			<hex8 id="9" mat="1">    21,    31,    33,    23,    22,    32,    34,    24</hex8>
			<hex8 id="10" mat="1">    23,    33,    35,    25,    24,    34,    36,    26</hex8>
			<hex8 id="11" mat="1">    25,    35,    37,    27,    26,    36,    38,    28</hex8>
			<hex8 id="12" mat="1">    27,    37,    39,    29,    28,    38,    40,    30</hex8>
			<hex8 id="13" mat="1">    31,    41,    43,    33,    32,    42,    44,    34</hex8>
			<hex8 id="14" mat="1">    33,    43,    45,    35,    34,    44,    46,    36</hex8>
			<hex8 id="15" mat="1">    35,    45,    47,    37,    36,    46,    48,    38</hex8>
			<hex8 id="16" mat="1">    37,    47,    49,    39,    38,    48,    50,    40</hex8>
			<hex8 id="17" mat="1">    41,    51,    53,    43,    42,    52,    54,    44</hex8>
			<hex8 id="18" mat="1">    43,    53,    55,    45,    44,    54,    56,    46</hex8>
			<hex8 id="19" mat="1">    45,    55,    57,    47,    46,    56,    58,    48</hex8>
			<hex8 id="20" mat="1">    47,    57,    59,    49,    48,    58,    60,    50</hex8>
<!-- ... 1592 like lines cut -->
		</Elements>
	</Geometry>
	<Boundary>
		<fix>
			<node id="1" bc="xyz"></node>
			<node id="2" bc="xyz"></node>
			<node id="3" bc="xyz"></node>
			<node id="4" bc="xyz"></node>
			<node id="5" bc="xyz"></node>
			<node id="6" bc="xyz"></node>
			<node id="7" bc="xyz"></node>
			<node id="8" bc="xyz"></node>
			<node id="9" bc="xyz"></node>
			<node id="10" bc="xyz"></node>
		</fix>
		<contact type="sliding_with_gaps">
			<laugon>0</laugon>
			<tolerance>0.01</tolerance>
			<penalty>12</penalty>
			<two_pass>0</two_pass>
			<surface type="master">
				<quad4 id="1">  1701,  1694,  1743,  1750</quad4>
				<quad4 id="2">  1694,  1695,  1744,  1743</quad4>
				<quad4 id="3">  1701,  1702,  1695,  1694</quad4>
				<quad4 id="4">  1695,  1696,  1745,  1744</quad4>
				<quad4 id="5">  1702,  1703,  1696,  1695</quad4>
				<quad4 id="6">  1696,  1697,  1746,  1745</quad4>
				<quad4 id="7">  1703,  1704,  1697,  1696</quad4>
				<quad4 id="8">  1697,  1698,  1747,  1746</quad4>
				<quad4 id="9">  1704,  1705,  1698,  1697</quad4>
				<quad4 id="10">  1698,  1699,  1748,  1747</quad4>
				<quad4 id="11">  1705,  1706,  1699,  1698</quad4>
				<quad4 id="12">  1700,  1707,  1751,  1749</quad4>
				<quad4 id="13">  1699,  1700,  1749,  1748</quad4>
				<quad4 id="14">  1706,  1707,  1700,  1699</quad4>
				<quad4 id="15">  1708,  1701,  1750,  1752</quad4>
				<quad4 id="16">  1708,  1709,  1702,  1701</quad4>
				<quad4 id="17">  1709,  1710,  1703,  1702</quad4>
				<quad4 id="18">  1710,  1711,  1704,  1703</quad4>
				<quad4 id="19">  1711,  1712,  1705,  1704</quad4>
				<quad4 id="20">  1712,  1713,  1706,  1705</quad4>
<!-- ... 64 like lines cut -->
			</surface>
			<surface type="slave">
				<quad4 id="1">   172,   182,   184,   174</quad4>
				<quad4 id="2">   174,   184,   186,   176</quad4>
				<quad4 id="3">   176,   186,   188,   178</quad4>
				<quad4 id="4">   178,   188,   190,   180</quad4>
				<quad4 id="5">   182,   192,   194,   184</quad4>
				<quad4 id="6">   184,   194,   196,   186</quad4>
				<quad4 id="7">   186,   196,   198,   188</quad4>
				<quad4 id="8">   188,   198,   200,   190</quad4>
				<quad4 id="9">   192,   202,   204,   194</quad4>
				<quad4 id="10">   194,   204,   206,   196</quad4>
				<quad4 id="11">   196,   206,   208,   198</quad4>
				<quad4 id="12">   198,   208,   210,   200</quad4>
				<quad4 id="13">   202,   212,   214,   204</quad4>
				<quad4 id="14">   204,   214,   216,   206</quad4>
				<quad4 id="15">   206,   216,   218,   208</quad4>
				<quad4 id="16">   208,   218,   220,   210</quad4>
				<quad4 id="17">   212,   222,   224,   214</quad4>
				<quad4 id="18">   214,   224,   226,   216</quad4>
				<quad4 id="19">   216,   226,   228,   218</quad4>
				<quad4 id="20">   218,   228,   230,   220</quad4>
<!-- ... 12 like lines cut -->
			</surface>
		</contact>
	</Boundary>
	<Constraints>
		<rigid_body mat="2">
			<trans_x type="fixed"></trans_x>
			<trans_y type="fixed"></trans_y>
			<trans_z type="prescribed" lc="1">1</trans_z>
			<rot_x type="fixed"></rot_x>
			<rot_y type="fixed"></rot_y>
			<rot_z type="fixed"></rot_z>
		</rigid_body>
	</Constraints>
	<LoadData>
		<loadcurve id="1">
			<loadpoint>0,0</loadpoint>
			<loadpoint>1,-5.0</loadpoint>
		</loadcurve>
        <loadcurve id="2" type="step">
            <loadpoint>0,0</loadpoint>
            <loadpoint>0.8,0.1</loadpoint>
			<loadpoint>1,0.1</loadpoint>
        </loadcurve>
	</LoadData>
	<Output>
		<plotfile type="febio"></plotfile>
	    <logfile>
			<element_data data="sz">60</element_data>
		</logfile>
    </Output>
</febio_spec>
