<?xml version="1.0" encoding="ISO-8859-1"?>
<!--
Problem Description:
	A block with friction has a z-displacement of -0.4 units from time t=0 to t=0.2
	and an x-displacement of 3 units from time t=0.2 to t=1 along a rigid body.
Main Features:
	Sliding Contact with Friction
	Rigid Bodies
Secondary Features:
	
Materials:
	Neo-Hookean
	Rigid Body
Degrees of Freedom: 612
Results:
	Steps Completed: 50
	Equilibrium Iterations: 202
	Right Hand Evaluations: 305
	Siffness Reformations: 51
	Other:
		The effective strain of the block is 0.322 at time t=1.
Comments:
	
-->
<febio_spec version="1.2">
	<Control>
		<title>Sliding with Friction</title>
		<time_steps>50</time_steps>
		<step_size>0.02</step_size>
		<max_refs>15</max_refs>
		<max_ups>10</max_ups>
		<dtol>0.001</dtol>
		<etol>0.01</etol>
		<rtol>0</rtol>
		<lstol>0.9</lstol>
		<pressure_stiffness>1</pressure_stiffness>
		<plot_level>PLOT_DEFAULT</plot_level>
	</Control>
	<Material>
		<material id="1" name="Material 1" type="neo-Hookean">
			<E>1</E>
			<v>0</v>
		</material>
		<material id="2" name="Material 2" type="rigid body">
			<density>1</density>
		</material>
	</Material>
	<Geometry>
		<Nodes>
			<node id="1">-3.0000000e+000,-1.0000000e+000,-1.0000000e-001</node>
			<node id="2">-3.0000000e+000,-1.0000000e+000, 0.0000000e+000</node>
			<node id="3">-3.0000000e+000, 1.0000000e+000,-1.0000000e-001</node>
			<node id="4">-3.0000000e+000, 1.0000000e+000, 0.0000000e+000</node>
			<node id="5"> 3.0000000e+000,-1.0000000e+000,-1.0000000e-001</node>
			<node id="6"> 3.0000000e+000,-1.0000000e+000, 0.0000000e+000</node>
			<node id="7"> 3.0000000e+000, 1.0000000e+000,-1.0000000e-001</node>
			<node id="8"> 3.0000000e+000, 1.0000000e+000, 0.0000000e+000</node>
			<node id="9">-2.5000000e+000,-5.0000000e-001, 0.0000000e+000</node>
			<node id="10">-2.5000000e+000,-5.0000000e-001, 2.0000000e-001</node>
			<node id="11">-2.5000000e+000,-5.0000000e-001, 4.0000000e-001</node>
			<node id="12">-2.5000000e+000,-5.0000000e-001, 6.0000000e-001</node>
			<node id="13">-2.5000000e+000,-5.0000000e-001, 8.0000000e-001</node>
			<node id="14">-2.5000000e+000,-5.0000000e-001, 1.0000000e+000</node>
			<node id="15">-2.5000000e+000,-3.0000000e-001, 0.0000000e+000</node>
			<node id="16">-2.5000000e+000,-3.0000000e-001, 2.0000000e-001</node>
			<node id="17">-2.5000000e+000,-3.0000000e-001, 4.0000000e-001</node>
			<node id="18">-2.5000000e+000,-3.0000000e-001, 6.0000000e-001</node>
			<node id="19">-2.5000000e+000,-3.0000000e-001, 8.0000000e-001</node>
			<node id="20">-2.5000000e+000,-3.0000000e-001, 1.0000000e+000</node>
<!-- ... 204 like lines cut -->
		</Nodes>
		<Elements>
			<hex8 id="1" mat="2">     1,     5,     7,     3,     2,     6,     8,     4</hex8>
			<hex8 id="2" mat="1">     9,    45,    51,    15,    10,    46,    52,    16</hex8>
			<hex8 id="3" mat="1">    10,    46,    52,    16,    11,    47,    53,    17</hex8>
			<hex8 id="4" mat="1">    11,    47,    53,    17,    12,    48,    54,    18</hex8>
			<hex8 id="5" mat="1">    12,    48,    54,    18,    13,    49,    55,    19</hex8>
			<hex8 id="6" mat="1">    13,    49,    55,    19,    14,    50,    56,    20</hex8>
			<hex8 id="7" mat="1">    15,    51,    57,    21,    16,    52,    58,    22</hex8>
			<hex8 id="8" mat="1">    16,    52,    58,    22,    17,    53,    59,    23</hex8>
			<hex8 id="9" mat="1">    17,    53,    59,    23,    18,    54,    60,    24</hex8>
			<hex8 id="10" mat="1">    18,    54,    60,    24,    19,    55,    61,    25</hex8>
			<hex8 id="11" mat="1">    19,    55,    61,    25,    20,    56,    62,    26</hex8>
			<hex8 id="12" mat="1">    21,    57,    63,    27,    22,    58,    64,    28</hex8>
			<hex8 id="13" mat="1">    22,    58,    64,    28,    23,    59,    65,    29</hex8>
			<hex8 id="14" mat="1">    23,    59,    65,    29,    24,    60,    66,    30</hex8>
			<hex8 id="15" mat="1">    24,    60,    66,    30,    25,    61,    67,    31</hex8>
			<hex8 id="16" mat="1">    25,    61,    67,    31,    26,    62,    68,    32</hex8>
			<hex8 id="17" mat="1">    27,    63,    69,    33,    28,    64,    70,    34</hex8>
			<hex8 id="18" mat="1">    28,    64,    70,    34,    29,    65,    71,    35</hex8>
			<hex8 id="19" mat="1">    29,    65,    71,    35,    30,    66,    72,    36</hex8>
			<hex8 id="20" mat="1">    30,    66,    72,    36,    31,    67,    73,    37</hex8>
<!-- ... 106 like lines cut -->
		</Elements>
	</Geometry>
	<Boundary>
		<fix>
			<node id="14" bc="y"></node>
			<node id="20" bc="y"></node>
			<node id="26" bc="y"></node>
			<node id="32" bc="y"></node>
			<node id="38" bc="y"></node>
			<node id="44" bc="y"></node>
			<node id="50" bc="y"></node>
			<node id="56" bc="y"></node>
			<node id="62" bc="y"></node>
			<node id="68" bc="y"></node>
			<node id="74" bc="y"></node>
			<node id="80" bc="y"></node>
			<node id="86" bc="y"></node>
			<node id="92" bc="y"></node>
			<node id="98" bc="y"></node>
			<node id="104" bc="y"></node>
			<node id="110" bc="y"></node>
			<node id="116" bc="y"></node>
			<node id="122" bc="y"></node>
			<node id="128" bc="y"></node>
<!-- ... 16 like lines cut -->
		</fix>
		<prescribe>
			<node id="14" bc="x" lc="1">1</node>
			<node id="14" bc="z" lc="2">1</node>
			<node id="20" bc="x" lc="1">1</node>
			<node id="20" bc="z" lc="2">1</node>
			<node id="26" bc="x" lc="1">1</node>
			<node id="26" bc="z" lc="2">1</node>
			<node id="32" bc="x" lc="1">1</node>
			<node id="32" bc="z" lc="2">1</node>
			<node id="38" bc="x" lc="1">1</node>
			<node id="38" bc="z" lc="2">1</node>
			<node id="44" bc="x" lc="1">1</node>
			<node id="44" bc="z" lc="2">1</node>
			<node id="50" bc="x" lc="1">1</node>
			<node id="50" bc="z" lc="2">1</node>
			<node id="56" bc="x" lc="1">1</node>
			<node id="56" bc="z" lc="2">1</node>
			<node id="62" bc="x" lc="1">1</node>
			<node id="62" bc="z" lc="2">1</node>
			<node id="68" bc="x" lc="1">1</node>
			<node id="68" bc="z" lc="2">1</node>
			<node id="74" bc="x" lc="1">1</node>
			<node id="74" bc="z" lc="2">1</node>
			<node id="80" bc="x" lc="1">1</node>
			<node id="80" bc="z" lc="2">1</node>
			<node id="86" bc="x" lc="1">1</node>
			<node id="86" bc="z" lc="2">1</node>
			<node id="92" bc="x" lc="1">1</node>
			<node id="92" bc="z" lc="2">1</node>
			<node id="98" bc="x" lc="1">1</node>
			<node id="98" bc="z" lc="2">1</node>
			<node id="104" bc="x" lc="1">1</node>
			<node id="104" bc="z" lc="2">1</node>
			<node id="110" bc="x" lc="1">1</node>
			<node id="110" bc="z" lc="2">1</node>
			<node id="116" bc="x" lc="1">1</node>
			<node id="116" bc="z" lc="2">1</node>
			<node id="122" bc="x" lc="1">1</node>
			<node id="122" bc="z" lc="2">1</node>
			<node id="128" bc="x" lc="1">1</node>
			<node id="128" bc="z" lc="2">1</node>
<!-- ... 32 like lines cut -->
		</prescribe>
		<contact type="sliding_with_gaps">
			<laugon>0</laugon>
			<tolerance>0.02</tolerance>
			<penalty>100</penalty>
			<two_pass>0</two_pass>
			<fric_coeff>0.2</fric_coeff>
			<fric_penalty>0.005</fric_penalty>
			<surface type="master">
				<quad4 id="1">     2,     6,     8,     4</quad4>
			</surface>
			<surface type="slave">
				<quad4 id="2">    15,    51,    45,     9</quad4>
				<quad4 id="3">    21,    57,    51,    15</quad4>
				<quad4 id="4">    27,    63,    57,    21</quad4>
				<quad4 id="5">    33,    69,    63,    27</quad4>
				<quad4 id="6">    39,    75,    69,    33</quad4>
				<quad4 id="7">    51,    87,    81,    45</quad4>
				<quad4 id="8">    57,    93,    87,    51</quad4>
				<quad4 id="9">    63,    99,    93,    57</quad4>
				<quad4 id="10">    69,   105,    99,    63</quad4>
				<quad4 id="11">    75,   111,   105,    69</quad4>
				<quad4 id="12">    87,   123,   117,    81</quad4>
				<quad4 id="13">    93,   129,   123,    87</quad4>
				<quad4 id="14">    99,   135,   129,    93</quad4>
				<quad4 id="15">   105,   141,   135,    99</quad4>
				<quad4 id="16">   111,   147,   141,   105</quad4>
				<quad4 id="17">   123,   159,   153,   117</quad4>
				<quad4 id="18">   129,   165,   159,   123</quad4>
				<quad4 id="19">   135,   171,   165,   129</quad4>
				<quad4 id="20">   141,   177,   171,   135</quad4>
				<quad4 id="21">   147,   183,   177,   141</quad4>
<!-- ... 5 like lines cut -->
			</surface>
		</contact>
	</Boundary>
	<Constraints>
		<rigid_body mat="2">
			<trans_x type="fixed"></trans_x>
			<trans_y type="fixed"></trans_y>
			<trans_z type="fixed"></trans_z>
			<rot_x type="fixed"></rot_x>
			<rot_y type="fixed"></rot_y>
			<rot_z type="fixed"></rot_z>
		</rigid_body>
	</Constraints>
	<LoadData>
		<loadcurve id="1">
			<loadpoint>0,0</loadpoint>
			<loadpoint>0.2,0</loadpoint>
			<loadpoint>1,3</loadpoint>
		</loadcurve>
		<loadcurve id="2">
			<loadpoint>0,0</loadpoint>
			<loadpoint>0.2,-0.4</loadpoint>
			<loadpoint>1,-0.4</loadpoint>
		</loadcurve>
	</LoadData>
	<Output>
		<plotfile type="febio"></plotfile>
		<logfile>
			<element_data data="Ez">2</element_data>
		</logfile>
	</Output>
</febio_spec>
