<?xml version="1.0" encoding="ISO-8859-1"?>
<!--
Problem Description:
	A block with a prescribed z-displacement of -1.5 units from time t=0 to t=7.5 slides
	with friction along a rigid inclined plane.
Main Features:
	Sliding Contact with Friction
Secondary Features:
	
Materials:
	Neo-Hookean
	Rigid Body
Degrees of Freedom: 1006
Results:
	Steps Completed: 75
	Equilibrium Iterations: 469
	Right Hand Evaluations: 780
	Siffness Reformations: 75
	Other:
		The maximum x-displacement is -0.19 at time t=7.5
Comments:
	
-->
<febio_spec version="1.2">
	<Module type="solid"/>
	<Control>
		<title>Inclined Plane Friction Compression</title>
		<time_steps>75</time_steps>
		<step_size>0.1</step_size>
		<max_refs>15</max_refs>
		<max_ups>10</max_ups>
		<dtol>0.001</dtol>
		<etol>0.01</etol>
		<rtol>0</rtol>
		<lstol>0.9</lstol>
		<pressure_stiffness>1</pressure_stiffness>
		<plot_level>PLOT_DEFAULT</plot_level>
	</Control>
	<Material>
		<material id="1" name="Material 1" type="neo-Hookean">
			<E>1</E>
			<v>0</v>
		</material>
		<material id="2" name="Material 2" type="rigid body">
			<density>1</density>
		</material>
	</Material>
	<Geometry>
		<Nodes>
			<node id="1"> 0.0000000e+000, 0.0000000e+000, 0.0000000e+000</node>
			<node id="2"> 0.0000000e+000, 0.0000000e+000, 2.0000000e-001</node>
			<node id="3"> 0.0000000e+000, 0.0000000e+000, 4.0000000e-001</node>
			<node id="4"> 0.0000000e+000, 0.0000000e+000, 6.0000000e-001</node>
			<node id="5"> 0.0000000e+000, 0.0000000e+000, 8.0000000e-001</node>
			<node id="6"> 0.0000000e+000, 0.0000000e+000, 1.0000000e+000</node>
			<node id="7"> 0.0000000e+000, 0.0000000e+000, 1.2000000e+000</node>
			<node id="8"> 0.0000000e+000, 0.0000000e+000, 1.4000000e+000</node>
			<node id="9"> 0.0000000e+000, 0.0000000e+000, 1.6000000e+000</node>
			<node id="10"> 0.0000000e+000, 0.0000000e+000, 1.8000000e+000</node>
			<node id="11"> 0.0000000e+000, 0.0000000e+000, 2.0000000e+000</node>
			<node id="12"> 0.0000000e+000, 2.0000000e-001, 0.0000000e+000</node>
			<node id="13"> 0.0000000e+000, 2.0000000e-001, 2.0000000e-001</node>
			<node id="14"> 0.0000000e+000, 2.0000000e-001, 4.0000000e-001</node>
			<node id="15"> 0.0000000e+000, 2.0000000e-001, 6.0000000e-001</node>
			<node id="16"> 0.0000000e+000, 2.0000000e-001, 8.0000000e-001</node>
			<node id="17"> 0.0000000e+000, 2.0000000e-001, 1.0000000e+000</node>
			<node id="18"> 0.0000000e+000, 2.0000000e-001, 1.2000000e+000</node>
			<node id="19"> 0.0000000e+000, 2.0000000e-001, 1.4000000e+000</node>
			<node id="20"> 0.0000000e+000, 2.0000000e-001, 1.6000000e+000</node>
<!-- ... 384 like lines cut -->
		</Nodes>
		<Elements>
			<hex8 id="1" mat="1">     1,    67,    78,    12,     2,    68,    79,    13</hex8>
			<hex8 id="2" mat="1">     2,    68,    79,    13,     3,    69,    80,    14</hex8>
			<hex8 id="3" mat="1">     3,    69,    80,    14,     4,    70,    81,    15</hex8>
			<hex8 id="4" mat="1">     4,    70,    81,    15,     5,    71,    82,    16</hex8>
			<hex8 id="5" mat="1">     5,    71,    82,    16,     6,    72,    83,    17</hex8>
			<hex8 id="6" mat="1">     6,    72,    83,    17,     7,    73,    84,    18</hex8>
			<hex8 id="7" mat="1">     7,    73,    84,    18,     8,    74,    85,    19</hex8>
			<hex8 id="8" mat="1">     8,    74,    85,    19,     9,    75,    86,    20</hex8>
			<hex8 id="9" mat="1">     9,    75,    86,    20,    10,    76,    87,    21</hex8>
			<hex8 id="10" mat="1">    10,    76,    87,    21,    11,    77,    88,    22</hex8>
			<hex8 id="11" mat="1">    12,    78,    89,    23,    13,    79,    90,    24</hex8>
			<hex8 id="12" mat="1">    13,    79,    90,    24,    14,    80,    91,    25</hex8>
			<hex8 id="13" mat="1">    14,    80,    91,    25,    15,    81,    92,    26</hex8>
			<hex8 id="14" mat="1">    15,    81,    92,    26,    16,    82,    93,    27</hex8>
			<hex8 id="15" mat="1">    16,    82,    93,    27,    17,    83,    94,    28</hex8>
			<hex8 id="16" mat="1">    17,    83,    94,    28,    18,    84,    95,    29</hex8>
			<hex8 id="17" mat="1">    18,    84,    95,    29,    19,    85,    96,    30</hex8>
			<hex8 id="18" mat="1">    19,    85,    96,    30,    20,    86,    97,    31</hex8>
			<hex8 id="19" mat="1">    20,    86,    97,    31,    21,    87,    98,    32</hex8>
			<hex8 id="20" mat="1">    21,    87,    98,    32,    22,    88,    99,    33</hex8>
<!-- ... 231 like lines cut -->
		</Elements>
	</Geometry>
	<Boundary>
		<fix>
			<node id="1" bc="x"></node>
			<node id="2" bc="x"></node>
			<node id="3" bc="x"></node>
			<node id="4" bc="x"></node>
			<node id="5" bc="x"></node>
			<node id="6" bc="x"></node>
			<node id="7" bc="x"></node>
			<node id="8" bc="x"></node>
			<node id="9" bc="x"></node>
			<node id="10" bc="x"></node>
			<node id="11" bc="xy"></node>
			<node id="12" bc="x"></node>
			<node id="13" bc="x"></node>
			<node id="14" bc="x"></node>
			<node id="15" bc="x"></node>
			<node id="16" bc="x"></node>
			<node id="17" bc="x"></node>
			<node id="18" bc="x"></node>
			<node id="19" bc="x"></node>
			<node id="20" bc="x"></node>
			<node id="21" bc="x"></node>
			<node id="22" bc="xy"></node>
			<node id="23" bc="x"></node>
			<node id="24" bc="x"></node>
			<node id="25" bc="x"></node>
			<node id="26" bc="x"></node>
			<node id="27" bc="x"></node>
			<node id="28" bc="x"></node>
			<node id="29" bc="x"></node>
			<node id="30" bc="x"></node>
			<node id="31" bc="x"></node>
			<node id="32" bc="x"></node>
			<node id="33" bc="xy"></node>
			<node id="34" bc="x"></node>
			<node id="35" bc="x"></node>
			<node id="36" bc="x"></node>
			<node id="37" bc="x"></node>
			<node id="38" bc="x"></node>
			<node id="39" bc="x"></node>
			<node id="40" bc="x"></node>
			<node id="41" bc="x"></node>
			<node id="42" bc="x"></node>
			<node id="43" bc="x"></node>
			<node id="44" bc="xy"></node>
			<node id="45" bc="x"></node>
			<node id="46" bc="x"></node>
			<node id="47" bc="x"></node>
			<node id="48" bc="x"></node>
			<node id="49" bc="x"></node>
			<node id="50" bc="x"></node>
			<node id="51" bc="x"></node>
			<node id="52" bc="x"></node>
			<node id="53" bc="x"></node>
			<node id="54" bc="x"></node>
			<node id="55" bc="xy"></node>
			<node id="56" bc="x"></node>
			<node id="57" bc="x"></node>
			<node id="58" bc="x"></node>
			<node id="59" bc="x"></node>
			<node id="60" bc="x"></node>
			<node id="61" bc="x"></node>
			<node id="62" bc="x"></node>
			<node id="63" bc="x"></node>
			<node id="64" bc="x"></node>
			<node id="65" bc="x"></node>
			<node id="66" bc="xy"></node>
			<node id="67" bc="y"></node>
			<node id="68" bc="y"></node>
			<node id="69" bc="y"></node>
			<node id="70" bc="y"></node>
			<node id="71" bc="y"></node>
			<node id="72" bc="y"></node>
			<node id="73" bc="y"></node>
			<node id="74" bc="y"></node>
			<node id="75" bc="y"></node>
			<node id="76" bc="y"></node>
			<node id="77" bc="xy"></node>
			<node id="88" bc="xy"></node>
			<node id="99" bc="xy"></node>
			<node id="110" bc="xy"></node>
			<node id="121" bc="xy"></node>
			<node id="132" bc="xy"></node>
			<node id="133" bc="y"></node>
			<node id="134" bc="y"></node>
			<node id="135" bc="y"></node>
			<node id="136" bc="y"></node>
			<node id="137" bc="y"></node>
			<node id="138" bc="y"></node>
			<node id="139" bc="y"></node>
			<node id="140" bc="y"></node>
			<node id="141" bc="y"></node>
			<node id="142" bc="y"></node>
			<node id="143" bc="xy"></node>
			<node id="154" bc="xy"></node>
			<node id="165" bc="xy"></node>
			<node id="176" bc="xy"></node>
			<node id="187" bc="xy"></node>
			<node id="198" bc="xy"></node>
			<node id="199" bc="y"></node>
			<node id="200" bc="y"></node>
			<node id="201" bc="y"></node>
			<node id="202" bc="y"></node>
			<node id="203" bc="y"></node>
			<node id="204" bc="y"></node>
			<node id="205" bc="y"></node>
			<node id="206" bc="y"></node>
			<node id="207" bc="y"></node>
			<node id="208" bc="y"></node>
			<node id="209" bc="xy"></node>
			<node id="220" bc="xy"></node>
			<node id="231" bc="xy"></node>
			<node id="242" bc="xy"></node>
			<node id="253" bc="xy"></node>
			<node id="264" bc="xy"></node>
			<node id="265" bc="y"></node>
			<node id="266" bc="y"></node>
			<node id="267" bc="y"></node>
			<node id="268" bc="y"></node>
			<node id="269" bc="y"></node>
			<node id="270" bc="y"></node>
			<node id="271" bc="y"></node>
			<node id="272" bc="y"></node>
			<node id="273" bc="y"></node>
			<node id="274" bc="y"></node>
			<node id="275" bc="xy"></node>
			<node id="286" bc="xy"></node>
			<node id="297" bc="xy"></node>
			<node id="308" bc="xy"></node>
			<node id="319" bc="xy"></node>
			<node id="330" bc="xy"></node>
			<node id="331" bc="y"></node>
			<node id="332" bc="y"></node>
			<node id="333" bc="y"></node>
			<node id="334" bc="y"></node>
			<node id="335" bc="y"></node>
			<node id="336" bc="y"></node>
			<node id="337" bc="y"></node>
			<node id="338" bc="y"></node>
			<node id="339" bc="y"></node>
			<node id="340" bc="y"></node>
			<node id="341" bc="xy"></node>
			<node id="352" bc="xy"></node>
			<node id="363" bc="xy"></node>
			<node id="374" bc="xy"></node>
			<node id="385" bc="xy"></node>
			<node id="396" bc="xy"></node>
		</fix>
		<prescribe>
			<node id="11" bc="z" lc="1">1</node>
			<node id="22" bc="z" lc="1">1</node>
			<node id="33" bc="z" lc="1">1</node>
			<node id="44" bc="z" lc="1">1</node>
			<node id="55" bc="z" lc="1">1</node>
			<node id="66" bc="z" lc="1">1</node>
			<node id="77" bc="z" lc="1">1</node>
			<node id="88" bc="z" lc="1">1</node>
			<node id="99" bc="z" lc="1">1</node>
			<node id="110" bc="z" lc="1">1</node>
			<node id="121" bc="z" lc="1">1</node>
			<node id="132" bc="z" lc="1">1</node>
			<node id="143" bc="z" lc="1">1</node>
			<node id="154" bc="z" lc="1">1</node>
			<node id="165" bc="z" lc="1">1</node>
			<node id="176" bc="z" lc="1">1</node>
			<node id="187" bc="z" lc="1">1</node>
			<node id="198" bc="z" lc="1">1</node>
			<node id="209" bc="z" lc="1">1</node>
			<node id="220" bc="z" lc="1">1</node>
<!-- ... 16 like lines cut -->
		</prescribe>
		<contact type="sliding_with_gaps">
			<laugon>1</laugon>
			<tolerance>0.1</tolerance>
			<penalty>10</penalty>
			<two_pass>0</two_pass>
			<fric_coeff>0.0</fric_coeff>
			<fric_penalty>0.0</fric_penalty>
			<minaug>3</minaug>
			<surface type="master">
				<quad4 id="1">   399,   397,   398,   400</quad4>
			</surface>
			<surface type="slave">
				<quad4 id="2">   331,   342,   343,   332</quad4>
				<quad4 id="3">   332,   343,   344,   333</quad4>
				<quad4 id="4">   333,   344,   345,   334</quad4>
				<quad4 id="5">   334,   345,   346,   335</quad4>
				<quad4 id="6">   335,   346,   347,   336</quad4>
				<quad4 id="7">   336,   347,   348,   337</quad4>
				<quad4 id="8">   337,   348,   349,   338</quad4>
				<quad4 id="9">   338,   349,   350,   339</quad4>
				<quad4 id="10">   339,   350,   351,   340</quad4>
				<quad4 id="11">   340,   351,   352,   341</quad4>
				<quad4 id="12">   342,   353,   354,   343</quad4>
				<quad4 id="13">   343,   354,   355,   344</quad4>
				<quad4 id="14">   344,   355,   356,   345</quad4>
				<quad4 id="15">   345,   356,   357,   346</quad4>
				<quad4 id="16">   346,   357,   358,   347</quad4>
				<quad4 id="17">   347,   358,   359,   348</quad4>
				<quad4 id="18">   348,   359,   360,   349</quad4>
				<quad4 id="19">   349,   360,   361,   350</quad4>
				<quad4 id="20">   350,   361,   362,   351</quad4>
				<quad4 id="21">   351,   362,   363,   352</quad4>
<!-- ... 30 like lines cut -->
			</surface>
		</contact>
	</Boundary>
	<Constraints>
		<rigid_body mat="2">
			<trans_x type="fixed"></trans_x>
			<trans_y type="fixed"></trans_y>
			<trans_z type="fixed"></trans_z>
			<rot_x type="fixed"></rot_x>
			<rot_y type="fixed"></rot_y>
			<rot_z type="fixed"></rot_z>
		</rigid_body>
	</Constraints>
	<LoadData>
		<loadcurve id="1">
			<loadpoint>0,0</loadpoint>
			<loadpoint>7.5,-1.5</loadpoint>
		</loadcurve>
	</LoadData>
	<Output>
		<plotfile type="febio"></plotfile>
	    <logfile>
			<element_data data="Ex">205</element_data>
		</logfile>
	</Output>
</febio_spec>
