<?xml version="1.0" encoding="ISO-8859-1"?>
<!--
Problem Description:
	Two cylindrical tubes at 90 degrees are compressed against each other.  The ends of
	one tube are constrained in x,y,z and the ends of the other tube have a prescribed
	displacement of -6.0 units in the x-direction.
Main Features:
	Sliding Contact with Friction
Secondary Features:
	
Materials:
	Neo-Hookean
Degrees of Freedom: 5568
Results:
	Steps Completed: 52
	Equilibrium Iterations: 517
	Right Hand Evaluations: 786
	Siffness Reformations: 62
	Other:
		The center node on the back of the horizontal tube (node 1491) has an x-displacement
		of -4.132 at time t=1.
Comments:
	This problem is the same as co15 but with friction.  Two vertical lines intersecting the plane
	y = 0 and the verticle tube are constrained in the y-direction and two horizontal lines
	intersecting the plane z = 5 and the horizontal tube are constrained in the z-direction.
-->
<febio_spec version="1.2">
	<Module type="solid"/>
	<Control>
		<title>Two Cylinder Compression with Friction</title>
		<time_steps>50</time_steps>
		<step_size>0.02</step_size>
		<max_refs>15</max_refs>
		<max_ups>10</max_ups>
		<dtol>0.001</dtol>
		<etol>0.01</etol>
		<rtol>0</rtol>
		<lstol>0.9</lstol>
		<time_stepper>
			<dtmin>0.01</dtmin>
			<dtmax>0.02</dtmax>
			<max_retries>5</max_retries>
			<opt_iter>15</opt_iter>
		</time_stepper>
	</Control>
	<Material>
		<material id="1" name="Material1" type="neo-Hookean">
			<density>1</density>
			<E>1</E>
			<v>0.33</v>
		</material>
		<material id="2" name="Material2" type="neo-Hookean">
			<density>1</density>
			<E>1</E>
			<v>0.33</v>
		</material>
	</Material>
	<Geometry>
		<Nodes>
			<node id="1">  8.0000000e-01,  0.0000000e+00,  0.0000000e+00</node>
			<node id="2">  9.0000000e-01,  0.0000000e+00,  0.0000000e+00</node>
			<node id="3">  1.0000000e+00,  0.0000000e+00,  0.0000000e+00</node>
			<node id="4">  7.3910363e-01,  3.0614674e-01,  0.0000000e+00</node>
			<node id="5">  8.3149158e-01,  3.4441508e-01,  0.0000000e+00</node>
			<node id="6">  9.2387954e-01,  3.8268343e-01,  0.0000000e+00</node>
			<node id="7">  5.6568543e-01,  5.6568542e-01,  0.0000000e+00</node>
			<node id="8">  6.3639611e-01,  6.3639609e-01,  0.0000000e+00</node>
			<node id="9">  7.0710679e-01,  7.0710677e-01,  0.0000000e+00</node>
			<node id="10">  3.0614676e-01,  7.3910362e-01,  0.0000000e+00</node>
			<node id="11">  3.4441511e-01,  8.3149157e-01,  0.0000000e+00</node>
			<node id="12">  3.8268345e-01,  9.2387952e-01,  0.0000000e+00</node>
			<node id="13">  2.1435917e-08,  8.0000000e-01,  0.0000000e+00</node>
			<node id="14">  2.4115407e-08,  9.0000000e-01,  0.0000000e+00</node>
			<node id="15">  2.6794897e-08,  1.0000000e+00,  0.0000000e+00</node>
			<node id="16"> -3.0614672e-01,  7.3910364e-01,  0.0000000e+00</node>
			<node id="17"> -3.4441506e-01,  8.3149159e-01,  0.0000000e+00</node>
			<node id="18"> -3.8268340e-01,  9.2387955e-01,  0.0000000e+00</node>
			<node id="19"> -5.6568540e-01,  5.6568545e-01,  0.0000000e+00</node>
			<node id="20"> -6.3639608e-01,  6.3639613e-01,  0.0000000e+00</node>
<!-- ... 1996 like lines cut -->
		</Nodes>
		<Elements>
			<hex8 id="1" mat="2">     1,     2,     5,     4,    49,    50,    53,    52</hex8>
			<hex8 id="2" mat="2">     2,     3,     6,     5,    50,    51,    54,    53</hex8>
			<hex8 id="3" mat="2">     4,     5,     8,     7,    52,    53,    56,    55</hex8>
			<hex8 id="4" mat="2">     5,     6,     9,     8,    53,    54,    57,    56</hex8>
			<hex8 id="5" mat="2">     7,     8,    11,    10,    55,    56,    59,    58</hex8>
			<hex8 id="6" mat="2">     8,     9,    12,    11,    56,    57,    60,    59</hex8>
			<hex8 id="7" mat="2">    10,    11,    14,    13,    58,    59,    62,    61</hex8>
			<hex8 id="8" mat="2">    11,    12,    15,    14,    59,    60,    63,    62</hex8>
			<hex8 id="9" mat="2">    13,    14,    17,    16,    61,    62,    65,    64</hex8>
			<hex8 id="10" mat="2">    14,    15,    18,    17,    62,    63,    66,    65</hex8>
			<hex8 id="11" mat="2">    16,    17,    20,    19,    64,    65,    68,    67</hex8>
			<hex8 id="12" mat="2">    17,    18,    21,    20,    65,    66,    69,    68</hex8>
			<hex8 id="13" mat="2">    19,    20,    23,    22,    67,    68,    71,    70</hex8>
			<hex8 id="14" mat="2">    20,    21,    24,    23,    68,    69,    72,    71</hex8>
			<hex8 id="15" mat="2">    22,    23,    26,    25,    70,    71,    74,    73</hex8>
			<hex8 id="16" mat="2">    23,    24,    27,    26,    71,    72,    75,    74</hex8>
			<hex8 id="17" mat="2">    25,    26,    29,    28,    73,    74,    77,    76</hex8>
			<hex8 id="18" mat="2">    26,    27,    30,    29,    74,    75,    78,    77</hex8>
			<hex8 id="19" mat="2">    28,    29,    32,    31,    76,    77,    80,    79</hex8>
			<hex8 id="20" mat="2">    29,    30,    33,    32,    77,    78,    81,    80</hex8>
<!-- ... 1260 like lines cut -->
		</Elements>
	</Geometry>
	<Boundary>
		<fix>
			<node id="1" bc="xyz"/>
			<node id="2" bc="xyz"/>
			<node id="3" bc="xyz"/>
			<node id="4" bc="xyz"/>
			<node id="5" bc="xyz"/>
			<node id="6" bc="xyz"/>
			<node id="7" bc="xyz"/>
			<node id="8" bc="xyz"/>
			<node id="9" bc="xyz"/>
			<node id="10" bc="xyz"/>
			<node id="11" bc="xyz"/>
			<node id="12" bc="xyz"/>
			<node id="13" bc="xyz"/>
			<node id="14" bc="xyz"/>
			<node id="15" bc="xyz"/>
			<node id="16" bc="xyz"/>
			<node id="17" bc="xyz"/>
			<node id="18" bc="xyz"/>
			<node id="19" bc="xyz"/>
			<node id="20" bc="xyz"/>
<!-- ... 76 like lines cut -->
		</fix>
		<fix>
			<node id="1009" bc="yz"/>
			<node id="1010" bc="yz"/>
			<node id="1011" bc="yz"/>
			<node id="1012" bc="yz"/>
			<node id="1013" bc="yz"/>
			<node id="1014" bc="yz"/>
			<node id="1015" bc="yz"/>
			<node id="1016" bc="yz"/>
			<node id="1017" bc="yz"/>
			<node id="1018" bc="yz"/>
			<node id="1019" bc="yz"/>
			<node id="1020" bc="yz"/>
			<node id="1021" bc="yz"/>
			<node id="1022" bc="yz"/>
			<node id="1023" bc="yz"/>
			<node id="1024" bc="yz"/>
			<node id="1025" bc="yz"/>
			<node id="1026" bc="yz"/>
			<node id="1027" bc="yz"/>
			<node id="1028" bc="yz"/>
<!-- ... 76 like lines cut -->
		</fix>
		<fix>
			<node id="1011" bc="z"/>
			<node id="1035" bc="z"/>
			<node id="1059" bc="z"/>
			<node id="1083" bc="z"/>
			<node id="1107" bc="z"/>
			<node id="1131" bc="z"/>
			<node id="1155" bc="z"/>
			<node id="1179" bc="z"/>
			<node id="1203" bc="z"/>
			<node id="1227" bc="z"/>
			<node id="1251" bc="z"/>
			<node id="1275" bc="z"/>
			<node id="1299" bc="z"/>
			<node id="1323" bc="z"/>
			<node id="1347" bc="z"/>
			<node id="1371" bc="z"/>
			<node id="1395" bc="z"/>
			<node id="1419" bc="z"/>
			<node id="1443" bc="z"/>
			<node id="1467" bc="z"/>
<!-- ... 22 like lines cut -->
		</fix>
		<fix>
			<node id="3" bc="y"/>
			<node id="27" bc="y"/>
			<node id="51" bc="y"/>
			<node id="75" bc="y"/>
			<node id="99" bc="y"/>
			<node id="123" bc="y"/>
			<node id="147" bc="y"/>
			<node id="171" bc="y"/>
			<node id="195" bc="y"/>
			<node id="219" bc="y"/>
			<node id="243" bc="y"/>
			<node id="267" bc="y"/>
			<node id="291" bc="y"/>
			<node id="315" bc="y"/>
			<node id="339" bc="y"/>
			<node id="363" bc="y"/>
			<node id="387" bc="y"/>
			<node id="411" bc="y"/>
			<node id="435" bc="y"/>
			<node id="459" bc="y"/>
<!-- ... 22 like lines cut -->
		</fix>
		<prescribe>
			<node id="1009" bc="x" lc="1">1</node>
			<node id="1010" bc="x" lc="1">1</node>
			<node id="1011" bc="x" lc="1">1</node>
			<node id="1012" bc="x" lc="1">1</node>
			<node id="1013" bc="x" lc="1">1</node>
			<node id="1014" bc="x" lc="1">1</node>
			<node id="1015" bc="x" lc="1">1</node>
			<node id="1016" bc="x" lc="1">1</node>
			<node id="1017" bc="x" lc="1">1</node>
			<node id="1018" bc="x" lc="1">1</node>
			<node id="1019" bc="x" lc="1">1</node>
			<node id="1020" bc="x" lc="1">1</node>
			<node id="1021" bc="x" lc="1">1</node>
			<node id="1022" bc="x" lc="1">1</node>
			<node id="1023" bc="x" lc="1">1</node>
			<node id="1024" bc="x" lc="1">1</node>
			<node id="1025" bc="x" lc="1">1</node>
			<node id="1026" bc="x" lc="1">1</node>
			<node id="1027" bc="x" lc="1">1</node>
			<node id="1028" bc="x" lc="1">1</node>
<!-- ... 76 like lines cut -->
		</prescribe>
		<contact type="sliding_with_gaps">
			<laugon>1</laugon>
			<tolerance>0.01</tolerance>
			<two_pass>1</two_pass>
			<penalty>1</penalty>
			<fric_coeff>0.5</fric_coeff>
			<fric_penalty>1</fric_penalty>
			<surface type="master">
				<quad4 id="1">  1023,  1026,  1074,  1071</quad4>
				<quad4 id="2">  1026,  1029,  1077,  1074</quad4>
				<quad4 id="3">  1029,  1032,  1080,  1077</quad4>
				<quad4 id="4">  1032,  1035,  1083,  1080</quad4>
				<quad4 id="5">  1071,  1074,  1122,  1119</quad4>
				<quad4 id="6">  1074,  1077,  1125,  1122</quad4>
				<quad4 id="7">  1077,  1080,  1128,  1125</quad4>
				<quad4 id="8">  1080,  1083,  1131,  1128</quad4>
				<quad4 id="9">  1119,  1122,  1170,  1167</quad4>
				<quad4 id="10">  1122,  1125,  1173,  1170</quad4>
				<quad4 id="11">  1125,  1128,  1176,  1173</quad4>
				<quad4 id="12">  1128,  1131,  1179,  1176</quad4>
				<quad4 id="13">  1167,  1170,  1218,  1215</quad4>
				<quad4 id="14">  1170,  1173,  1221,  1218</quad4>
				<quad4 id="15">  1173,  1176,  1224,  1221</quad4>
				<quad4 id="16">  1176,  1179,  1227,  1224</quad4>
				<quad4 id="17">  1215,  1218,  1266,  1263</quad4>
				<quad4 id="18">  1218,  1221,  1269,  1266</quad4>
				<quad4 id="19">  1221,  1224,  1272,  1269</quad4>
				<quad4 id="20">  1224,  1227,  1275,  1272</quad4>
<!-- ... 140 like lines cut -->
			</surface>
			<surface type="slave">
				<quad4 id="1">     3,     6,    54,    51</quad4>
				<quad4 id="2">     6,     9,    57,    54</quad4>
				<quad4 id="3">     9,    12,    60,    57</quad4>
				<quad4 id="4">    12,    15,    63,    60</quad4>
				<quad4 id="5">    51,    54,   102,    99</quad4>
				<quad4 id="6">    54,    57,   105,   102</quad4>
				<quad4 id="7">    57,    60,   108,   105</quad4>
				<quad4 id="8">    60,    63,   111,   108</quad4>
				<quad4 id="9">    99,   102,   150,   147</quad4>
				<quad4 id="10">   102,   105,   153,   150</quad4>
				<quad4 id="11">   105,   108,   156,   153</quad4>
				<quad4 id="12">   108,   111,   159,   156</quad4>
				<quad4 id="13">   147,   150,   198,   195</quad4>
				<quad4 id="14">   150,   153,   201,   198</quad4>
				<quad4 id="15">   153,   156,   204,   201</quad4>
				<quad4 id="16">   156,   159,   207,   204</quad4>
				<quad4 id="17">   195,   198,   246,   243</quad4>
				<quad4 id="18">   198,   201,   249,   246</quad4>
				<quad4 id="19">   201,   204,   252,   249</quad4>
				<quad4 id="20">   204,   207,   255,   252</quad4>
<!-- ... 140 like lines cut -->
			</surface>
		</contact>
	</Boundary>
	<LoadData>
		<loadcurve id="1" type="smooth">
			<loadpoint>0,0</loadpoint>
			<loadpoint>1,-6</loadpoint>
		</loadcurve>
	</LoadData>
	<Output>
		<plotfile type="febio"></plotfile>
	    <logfile>
			<element_data data="Ey">1264</element_data>
		</logfile>
	</Output>
</febio_spec>
