<?xml version="1.0" encoding="ISO-8859-1"?>
<!--
Problem Description:
	A 2-dimensional billet block is compressed between two rigid bodies in plain strain
	which each have a prescribed z-displacement (compressing the block) of 0.6 units
	from time t=0 to t=1.
Main Features:
	Sliding Contact
	Augmented Lagrangian
	Rigid Bodies
Secondary Features:
	None
Materials:
	Neo-Hookean
	Rigid Bodies
Degrees of Freedom: 4882
Results:
	Steps Completed: 10
	Equilibrium Iterations: 131
	Right Hand Evaluations: 178
	Siffness Reformations: 15
	Other:
		Maximum x-displacement of 0.716 (node 2443) at time t=1.
Comments:
	Gets better convergence and less contact penetration using augmented Lagrangian.
-->
<febio_spec version="1.2">
	<Control>
		<title>Compressed Billet</title>
		<time_steps>10</time_steps>
		<step_size>0.1</step_size>
		<max_refs>15</max_refs>
		<max_ups>10</max_ups>
		<dtol>0.001</dtol>
		<etol>0.01</etol>
		<rtol>0</rtol>
		<lstol>0.9</lstol>
		<pressure_stiffness>1</pressure_stiffness>
		<plot_level>PLOT_DEFAULT</plot_level>
	</Control>
	<Material>
		<material id="1" name="billet" type="neo-Hookean">
			<E>1</E>
			<v>0.4</v>
		</material>
		<material id="2" name="top" type="rigid body">
			<density>1</density>
		</material>
		<material id="3" name="bottom" type="rigid body">
			<density>1</density>
		</material>
	</Material>
	<Geometry>
		<Nodes>
			<node id="1">-5.0000000e-001,-5.0000000e-001,-5.0000000e-002</node>
			<node id="2">-4.5000000e-001,-5.0000000e-001,-5.0000000e-002</node>
			<node id="3">-4.0000000e-001,-5.0000000e-001,-5.0000000e-002</node>
			<node id="4">-3.5000000e-001,-5.0000000e-001,-5.0000000e-002</node>
			<node id="5">-3.0000000e-001,-5.0000000e-001,-5.0000000e-002</node>
			<node id="6">-2.5000000e-001,-5.0000000e-001,-5.0000000e-002</node>
			<node id="7">-2.0000000e-001,-5.0000000e-001,-5.0000000e-002</node>
			<node id="8">-1.5000000e-001,-5.0000000e-001,-5.0000000e-002</node>
			<node id="9">-1.0000000e-001,-5.0000000e-001,-5.0000000e-002</node>
			<node id="10">-5.0000000e-002,-5.0000000e-001,-5.0000000e-002</node>
			<node id="11"> 0.0000000e+000,-5.0000000e-001,-5.0000000e-002</node>
			<node id="12"> 5.0000000e-002,-5.0000000e-001,-5.0000000e-002</node>
			<node id="13"> 1.0000000e-001,-5.0000000e-001,-5.0000000e-002</node>
			<node id="14"> 1.5000000e-001,-5.0000000e-001,-5.0000000e-002</node>
			<node id="15"> 2.0000000e-001,-5.0000000e-001,-5.0000000e-002</node>
			<node id="16"> 2.5000000e-001,-5.0000000e-001,-5.0000000e-002</node>
			<node id="17"> 3.0000000e-001,-5.0000000e-001,-5.0000000e-002</node>
			<node id="18"> 3.5000000e-001,-5.0000000e-001,-5.0000000e-002</node>
			<node id="19"> 4.0000000e-001,-5.0000000e-001,-5.0000000e-002</node>
			<node id="20"> 4.5000000e-001,-5.0000000e-001,-5.0000000e-002</node>
<!-- ... 2478 like lines cut -->
		</Nodes>
		<Elements>
			<hex8 id="1" mat="1">     1,     2,    23,    22,   442,   443,   464,   463</hex8>
			<hex8 id="2" mat="1">     2,     3,    24,    23,   443,   444,   465,   464</hex8>
			<hex8 id="3" mat="1">     3,     4,    25,    24,   444,   445,   466,   465</hex8>
			<hex8 id="4" mat="1">     4,     5,    26,    25,   445,   446,   467,   466</hex8>
			<hex8 id="5" mat="1">     5,     6,    27,    26,   446,   447,   468,   467</hex8>
			<hex8 id="6" mat="1">     6,     7,    28,    27,   447,   448,   469,   468</hex8>
			<hex8 id="7" mat="1">     7,     8,    29,    28,   448,   449,   470,   469</hex8>
			<hex8 id="8" mat="1">     8,     9,    30,    29,   449,   450,   471,   470</hex8>
			<hex8 id="9" mat="1">     9,    10,    31,    30,   450,   451,   472,   471</hex8>
			<hex8 id="10" mat="1">    10,    11,    32,    31,   451,   452,   473,   472</hex8>
			<hex8 id="11" mat="1">    11,    12,    33,    32,   452,   453,   474,   473</hex8>
			<hex8 id="12" mat="1">    12,    13,    34,    33,   453,   454,   475,   474</hex8>
			<hex8 id="13" mat="1">    13,    14,    35,    34,   454,   455,   476,   475</hex8>
			<hex8 id="14" mat="1">    14,    15,    36,    35,   455,   456,   477,   476</hex8>
			<hex8 id="15" mat="1">    15,    16,    37,    36,   456,   457,   478,   477</hex8>
			<hex8 id="16" mat="1">    16,    17,    38,    37,   457,   458,   479,   478</hex8>
			<hex8 id="17" mat="1">    17,    18,    39,    38,   458,   459,   480,   479</hex8>
			<hex8 id="18" mat="1">    18,    19,    40,    39,   459,   460,   481,   480</hex8>
			<hex8 id="19" mat="1">    19,    20,    41,    40,   460,   461,   482,   481</hex8>
			<hex8 id="20" mat="1">    20,    21,    42,    41,   461,   462,   483,   482</hex8>
<!-- ... 1182 like lines cut -->
		</Elements>
	</Geometry>
	<Boundary>
		<fix>
			<node id="1" bc="z"></node>
			<node id="2" bc="z"></node>
			<node id="3" bc="z"></node>
			<node id="4" bc="z"></node>
			<node id="5" bc="z"></node>
			<node id="6" bc="z"></node>
			<node id="7" bc="z"></node>
			<node id="8" bc="z"></node>
			<node id="9" bc="z"></node>
			<node id="10" bc="z"></node>
			<node id="11" bc="z"></node>
			<node id="12" bc="z"></node>
			<node id="13" bc="z"></node>
			<node id="14" bc="z"></node>
			<node id="15" bc="z"></node>
			<node id="16" bc="z"></node>
			<node id="17" bc="z"></node>
			<node id="18" bc="z"></node>
			<node id="19" bc="z"></node>
			<node id="20" bc="z"></node>
<!-- ... 2302 like lines cut -->
			<node id="2323" bc="xz"></node>
			<node id="2324" bc="xz"></node>
			<node id="2325" bc="xz"></node>
			<node id="2326" bc="xz"></node>
			<node id="2327" bc="xz"></node>
			<node id="2328" bc="xz"></node>
			<node id="2329" bc="xz"></node>
			<node id="2330" bc="xz"></node>
			<node id="2331" bc="xz"></node>
			<node id="2332" bc="xz"></node>
			<node id="2333" bc="xz"></node>
			<node id="2334" bc="xz"></node>
			<node id="2335" bc="xz"></node>
			<node id="2336" bc="xz"></node>
			<node id="2337" bc="xz"></node>
			<node id="2338" bc="xz"></node>
			<node id="2339" bc="xz"></node>
			<node id="2340" bc="xz"></node>
			<node id="2341" bc="xz"></node>
			<node id="2342" bc="xz"></node>
			<node id="2343" bc="xz"></node>
			<node id="2344" bc="z"></node>
			<node id="2345" bc="z"></node>
			<node id="2346" bc="z"></node>
			<node id="2347" bc="z"></node>
			<node id="2348" bc="z"></node>
			<node id="2349" bc="z"></node>
			<node id="2350" bc="z"></node>
			<node id="2351" bc="z"></node>
			<node id="2352" bc="z"></node>
			<node id="2353" bc="z"></node>
			<node id="2354" bc="z"></node>
			<node id="2355" bc="z"></node>
			<node id="2356" bc="z"></node>
			<node id="2357" bc="z"></node>
			<node id="2358" bc="z"></node>
			<node id="2359" bc="z"></node>
			<node id="2360" bc="z"></node>
			<node id="2361" bc="z"></node>
			<node id="2362" bc="z"></node>
			<node id="2363" bc="z"></node>
<!-- ... 18 like lines cut -->
			<node id="2382" bc="xz"></node>
			<node id="2383" bc="xz"></node>
			<node id="2384" bc="xz"></node>
			<node id="2385" bc="xz"></node>
			<node id="2386" bc="xz"></node>
			<node id="2387" bc="xz"></node>
			<node id="2388" bc="xz"></node>
			<node id="2389" bc="xz"></node>
			<node id="2390" bc="xz"></node>
			<node id="2391" bc="xz"></node>
			<node id="2392" bc="xz"></node>
			<node id="2393" bc="xz"></node>
			<node id="2394" bc="xz"></node>
			<node id="2395" bc="xz"></node>
			<node id="2396" bc="xz"></node>
			<node id="2397" bc="xz"></node>
			<node id="2398" bc="xz"></node>
			<node id="2399" bc="xz"></node>
			<node id="2400" bc="xz"></node>
			<node id="2401" bc="xz"></node>
<!-- ... 22 like lines cut -->
			<node id="2424" bc="z"></node>
			<node id="2425" bc="z"></node>
			<node id="2426" bc="z"></node>
			<node id="2427" bc="z"></node>
			<node id="2428" bc="z"></node>
			<node id="2429" bc="z"></node>
			<node id="2430" bc="z"></node>
			<node id="2431" bc="z"></node>
			<node id="2432" bc="z"></node>
			<node id="2433" bc="z"></node>
			<node id="2434" bc="z"></node>
			<node id="2435" bc="z"></node>
			<node id="2436" bc="z"></node>
			<node id="2437" bc="z"></node>
			<node id="2438" bc="z"></node>
			<node id="2439" bc="z"></node>
			<node id="2440" bc="z"></node>
			<node id="2441" bc="z"></node>
			<node id="2442" bc="z"></node>
			<node id="2443" bc="z"></node>
<!-- ... 18 like lines cut -->
			<node id="2462" bc="xz"></node>
			<node id="2463" bc="xz"></node>
			<node id="2464" bc="xz"></node>
			<node id="2465" bc="xz"></node>
			<node id="2466" bc="xz"></node>
			<node id="2467" bc="xz"></node>
			<node id="2468" bc="xz"></node>
			<node id="2469" bc="xz"></node>
			<node id="2470" bc="xz"></node>
			<node id="2471" bc="xz"></node>
			<node id="2472" bc="xz"></node>
			<node id="2473" bc="xz"></node>
			<node id="2474" bc="xz"></node>
			<node id="2475" bc="xz"></node>
			<node id="2476" bc="xz"></node>
			<node id="2477" bc="xz"></node>
			<node id="2478" bc="xz"></node>
			<node id="2479" bc="xz"></node>
			<node id="2480" bc="xz"></node>
			<node id="2481" bc="xz"></node>
			<node id="2482" bc="xz"></node>
		</fix>
		<contact type="sliding_with_gaps">
			<laugon>1</laugon>
			<tolerance>0.01</tolerance>
			<penalty>15</penalty>
			<two_pass>0</two_pass>
			<surface type="master">
				<quad4 id="1">  2483,  2487,  2488,  2484</quad4>
			</surface>
			<surface type="slave">
				<quad4 id="2">  2364,  2362,  2442,  2444</quad4>
				<quad4 id="3">  2363,  2365,  2445,  2443</quad4>
				<quad4 id="4">  2366,  2364,  2444,  2446</quad4>
				<quad4 id="5">  2365,  2367,  2447,  2445</quad4>
				<quad4 id="6">  2368,  2366,  2446,  2448</quad4>
				<quad4 id="7">  2367,  2369,  2449,  2447</quad4>
				<quad4 id="8">  2370,  2368,  2448,  2450</quad4>
				<quad4 id="9">  2369,  2371,  2451,  2449</quad4>
				<quad4 id="10">  2372,  2370,  2450,  2452</quad4>
				<quad4 id="11">  2371,  2373,  2453,  2451</quad4>
				<quad4 id="12">  2374,  2372,  2452,  2454</quad4>
				<quad4 id="13">  2373,  2375,  2455,  2453</quad4>
				<quad4 id="14">  2376,  2374,  2454,  2456</quad4>
				<quad4 id="15">  2375,  2377,  2457,  2455</quad4>
				<quad4 id="16">  2378,  2376,  2456,  2458</quad4>
				<quad4 id="17">  2377,  2379,  2459,  2457</quad4>
				<quad4 id="18">  2380,  2378,  2458,  2460</quad4>
				<quad4 id="19">  2379,  2381,  2461,  2459</quad4>
				<quad4 id="20">  2382,  2380,  2460,  2462</quad4>
				<quad4 id="21">  2383,  2382,  2462,  2463</quad4>
<!-- ... 20 like lines cut -->
			</surface>
		</contact>
		<contact type="sliding_with_gaps">
			<laugon>1</laugon>
			<tolerance>0.01</tolerance>
			<penalty>15</penalty>
			<two_pass>0</two_pass>
			<surface type="master">
				<quad4 id="1">  2497,  2493,  2494,  2498</quad4>
			</surface>
			<surface type="slave">
				<quad4 id="2">  2344,  2323,  2403,  2424</quad4>
				<quad4 id="3">  2323,  2324,  2404,  2403</quad4>
				<quad4 id="4">  2324,  2325,  2405,  2404</quad4>
				<quad4 id="5">  2325,  2326,  2406,  2405</quad4>
				<quad4 id="6">  2326,  2327,  2407,  2406</quad4>
				<quad4 id="7">  2327,  2328,  2408,  2407</quad4>
				<quad4 id="8">  2328,  2329,  2409,  2408</quad4>
				<quad4 id="9">  2329,  2330,  2410,  2409</quad4>
				<quad4 id="10">  2330,  2331,  2411,  2410</quad4>
				<quad4 id="11">  2331,  2332,  2412,  2411</quad4>
				<quad4 id="12">  2332,  2333,  2413,  2412</quad4>
				<quad4 id="13">  2333,  2334,  2414,  2413</quad4>
				<quad4 id="14">  2334,  2335,  2415,  2414</quad4>
				<quad4 id="15">  2335,  2336,  2416,  2415</quad4>
				<quad4 id="16">  2336,  2337,  2417,  2416</quad4>
				<quad4 id="17">  2337,  2338,  2418,  2417</quad4>
				<quad4 id="18">  2338,  2339,  2419,  2418</quad4>
				<quad4 id="19">  2339,  2340,  2420,  2419</quad4>
				<quad4 id="20">  2340,  2341,  2421,  2420</quad4>
				<quad4 id="21">  2341,  2342,  2422,  2421</quad4>
<!-- ... 20 like lines cut -->
			</surface>
		</contact>
	</Boundary>
	<Constraints>
		<rigid_body mat="2">
			<trans_x type="fixed"></trans_x>
			<trans_y type="prescribed" lc="1">1</trans_y>
			<trans_z type="fixed"></trans_z>
			<rot_x type="fixed"></rot_x>
			<rot_y type="fixed"></rot_y>
			<rot_z type="fixed"></rot_z>
		</rigid_body>
		<rigid_body mat="3">
			<trans_x type="fixed"></trans_x>
			<trans_y type="prescribed" lc="2">1</trans_y>
			<trans_z type="fixed"></trans_z>
			<rot_x type="fixed"></rot_x>
			<rot_y type="fixed"></rot_y>
			<rot_z type="fixed"></rot_z>
		</rigid_body>
	</Constraints>
	<LoadData>
		<loadcurve id="1">
			<loadpoint>0,0</loadpoint>
			<loadpoint>1,-0.6</loadpoint>
		</loadcurve>
		<loadcurve id="2">
			<loadpoint>0,0</loadpoint>
			<loadpoint>1,0.6</loadpoint>
		</loadcurve>
	</LoadData>
	<Output>
		<plotfile type="febio"></plotfile>
	    <logfile>
			<element_data data="sz">260</element_data>
		</logfile>
	</Output>
</febio_spec>
