<?xml version="1.0" encoding="ISO-8859-1"?>
<!--
Problem Description:
	Cleveland Clinic 2-d foot model
Main Features:
	Rigid-wall contact
	Rigid Bodies
Secondary Features:
	Multiple prescribed displacement loadcurves
Materials:
	Neo-Hookean
	Mooney-Rivlin
	Rigid Bodies
Degrees of Freedom: 
Results:
	Steps Completed: 24
	Equilibrium Iterations: 134
	Right Hand Evaluations: 160
	Siffness Reformations: 24
	Other:
		The maximum effective strain is 0.227 units and occurs in the muscle
		above the ball of the foot at time t=41.23
Comments:
	
-->
<febio_spec version="1.2">
	<Control>
		<title>2D Foot model - sliding interfaces</title>
		<time_steps>60</time_steps>
		<step_size>1</step_size>
		<max_refs>15</max_refs>
		<max_ups>10</max_ups>
		<dtol>0.001</dtol>
		<etol>0.01</etol>
		<rtol>1e+010</rtol>
		<lstol>0.9</lstol>
		<time_stepper>
			<dtmin>0.5</dtmin>
			<dtmax lc="4">3</dtmax>
			<max_retries>5</max_retries>
			<opt_iter>30</opt_iter>
		</time_stepper>
	</Control>
	<Material>
		<material id="1" name="floor" type="rigid body">
			<density>1000</density>
			<center_of_mass>0,0,0</center_of_mass>
		</material>
		<material id="2" name="ALLCARTILAGE" type="rigid body">
			<density>1000</density>
		</material>
		<material id="3" name="CALCANEUS" type="rigid body">
			<density>1000</density>
			<center_of_mass>-81,120,0.5</center_of_mass>
		</material>
		<material id="4" name="DPHAL" type="rigid body">
			<density>1000</density>
		</material>
		<material id="5" name="META-PPHAL" type="neo-Hookean">
			<E>1</E>
			<v>0.3</v>
		</material>
		<material id="6" name="METATARSAL" type="rigid body">
			<density>1000</density>
		</material>
		<material id="7" name="NAV-TAR" type="rigid body">
			<density>1000</density>
		</material>
		<material id="8" name="NAVICULAR" type="rigid body">
			<density>1000</density>
		</material>
		<material id="9" name="PPHAL" type="rigid body">
			<density>1000</density>
		</material>
		<material id="10" name="PPHAL-DPHAL" type="rigid body">
			<density>1000</density>
		</material>
		<material id="11" name="SOFT" type="Mooney-Rivlin">
			<c1>1</c1>
			<c2>0</c2>
			<k>1.33333</k>
		</material>
		<material id="12" name="TAL-CAL" type="rigid body">
			<density>1000</density>
		</material>
		<material id="13" name="TAL-NAV" type="rigid body">
			<density>1000</density>
		</material>
		<material id="14" name="TALUS" type="rigid body">
			<density>1000</density>
		</material>
		<material id="15" name="TAR-META" type="rigid body">
			<density>1000</density>
		</material>
		<material id="16" name="TARSAL" type="rigid body">
			<density>1000</density>
		</material>
	</Material>
	<Geometry>
		<Nodes>
			<node id="1">-4.2506599e+001, 3.5454899e+001, 0.0000000e+000</node>
			<node id="2">-4.2506599e+001, 3.5454899e+001, 1.0000000e+000</node>
			<node id="3">-4.2447701e+001, 3.8544601e+001, 0.0000000e+000</node>
			<node id="4">-4.2447701e+001, 3.8544601e+001, 1.0000000e+000</node>
			<node id="5">-4.2388802e+001, 4.1634300e+001, 0.0000000e+000</node>
			<node id="6">-4.2388802e+001, 4.1634300e+001, 1.0000000e+000</node>
			<node id="7">-4.2329899e+001, 4.4723999e+001, 0.0000000e+000</node>
			<node id="8">-4.2329899e+001, 4.4723999e+001, 1.0000000e+000</node>
			<node id="9">-4.2270901e+001, 4.7813599e+001, 0.0000000e+000</node>
			<node id="10">-4.2270901e+001, 4.7813599e+001, 1.0000000e+000</node>
			<node id="11">-4.2212002e+001, 5.0903301e+001, 0.0000000e+000</node>
			<node id="12">-4.2212002e+001, 5.0903301e+001, 1.0000000e+000</node>
			<node id="13">-4.2153099e+001, 5.3993000e+001, 0.0000000e+000</node>
			<node id="14">-4.2153099e+001, 5.3993000e+001, 1.0000000e+000</node>
			<node id="15">-4.6069401e+001, 3.4188499e+001, 0.0000000e+000</node>
			<node id="16">-4.6069401e+001, 3.4188499e+001, 1.0000000e+000</node>
			<node id="17">-4.5841499e+001, 3.7506302e+001, 0.0000000e+000</node>
			<node id="18">-4.5841499e+001, 3.7506302e+001, 1.0000000e+000</node>
			<node id="19">-4.5560600e+001, 4.0874001e+001, 0.0000000e+000</node>
			<node id="20">-4.5560600e+001, 4.0874001e+001, 1.0000000e+000</node>
<!-- ... 2210 like lines cut -->
		</Nodes>
		<Elements>
			<hex8 id="1" mat="11">    15,     1,     3,    17,    16,     2,     4,    18</hex8>
			<hex8 id="2" mat="11">    29,    15,    17,    31,    30,    16,    18,    32</hex8>
			<hex8 id="3" mat="11">    43,    29,    31,    45,    44,    30,    32,    46</hex8>
			<hex8 id="4" mat="11">    57,    43,    45,    59,    58,    44,    46,    60</hex8>
			<hex8 id="5" mat="11">    71,    57,    59,    73,    72,    58,    60,    74</hex8>
			<hex8 id="6" mat="11">    85,    71,    73,    87,    86,    72,    74,    88</hex8>
			<hex8 id="7" mat="11">    99,    85,    87,   101,   100,    86,    88,   102</hex8>
			<hex8 id="8" mat="11">    17,     3,     5,    19,    18,     4,     6,    20</hex8>
			<hex8 id="9" mat="11">    31,    17,    19,    33,    32,    18,    20,    34</hex8>
			<hex8 id="10" mat="11">    45,    31,    33,    47,    46,    32,    34,    48</hex8>
			<hex8 id="11" mat="11">    59,    45,    47,    61,    60,    46,    48,    62</hex8>
			<hex8 id="12" mat="11">    73,    59,    61,    75,    74,    60,    62,    76</hex8>
			<hex8 id="13" mat="11">    87,    73,    75,    89,    88,    74,    76,    90</hex8>
			<hex8 id="14" mat="11">   101,    87,    89,   103,   102,    88,    90,   104</hex8>
			<hex8 id="15" mat="11">    19,     5,     7,    21,    20,     6,     8,    22</hex8>
			<hex8 id="16" mat="11">    33,    19,    21,    35,    34,    20,    22,    36</hex8>
			<hex8 id="17" mat="11">    47,    33,    35,    49,    48,    34,    36,    50</hex8>
			<hex8 id="18" mat="11">    61,    47,    49,    63,    62,    48,    50,    64</hex8>
			<hex8 id="19" mat="11">    75,    61,    63,    77,    76,    62,    64,    78</hex8>
			<hex8 id="20" mat="11">    89,    75,    77,    91,    90,    76,    78,    92</hex8>
<!-- ... 1017 like lines cut -->
		</Elements>
	</Geometry>
	<Boundary>
		<fix>
			<node id="1" bc="z"></node>
			<node id="2" bc="z"></node>
			<node id="3" bc="z"></node>
			<node id="4" bc="z"></node>
			<node id="5" bc="z"></node>
			<node id="6" bc="z"></node>
			<node id="7" bc="z"></node>
			<node id="8" bc="z"></node>
			<node id="9" bc="z"></node>
			<node id="10" bc="z"></node>
			<node id="11" bc="z"></node>
			<node id="12" bc="z"></node>
			<node id="13" bc="z"></node>
			<node id="14" bc="z"></node>
			<node id="15" bc="z"></node>
			<node id="16" bc="z"></node>
			<node id="17" bc="z"></node>
			<node id="18" bc="z"></node>
			<node id="19" bc="z"></node>
			<node id="20" bc="z"></node>
<!-- ... 2210 like lines cut -->
		</fix>
		<contact type="rigid_wall">
			<tolerance>0.01</tolerance>
			<penalty>0.1</penalty>
			<plane>0,1,0,20</plane>
			<surface>
				<quad4 id="2">    15,     1,     2,    16</quad4>
				<quad4 id="3">    29,    15,    16,    30</quad4>
				<quad4 id="4">    43,    29,    30,    44</quad4>
				<quad4 id="5">    57,    43,    44,    58</quad4>
				<quad4 id="6">    71,    57,    58,    72</quad4>
				<quad4 id="7">    85,    71,    72,    86</quad4>
				<quad4 id="8">    99,    85,    86,   100</quad4>
				<quad4 id="9">   385,    99,   100,   386</quad4>
				<quad4 id="10">   433,   385,   386,   434</quad4>
				<quad4 id="11">   447,   433,   434,   448</quad4>
				<quad4 id="12">   461,   447,   448,   462</quad4>
				<quad4 id="13">   475,   461,   462,   476</quad4>
				<quad4 id="14">   489,   475,   476,   490</quad4>
				<quad4 id="15">   503,   489,   490,   504</quad4>
				<quad4 id="16">   517,   503,   504,   518</quad4>
				<quad4 id="17">   531,   517,   518,   532</quad4>
				<quad4 id="18">   545,   531,   532,   546</quad4>
				<quad4 id="19">   815,   823,   824,   816</quad4>
				<quad4 id="20">   823,   831,   832,   824</quad4>
				<quad4 id="21">   831,   839,   840,   832</quad4>
<!-- ... 55 like lines cut -->
			</surface>
		</contact>
	</Boundary>
	<Constraints>
		<rigid_body mat="1">
			<trans_x type="fixed"></trans_x>
			<trans_y type="fixed"></trans_y>
			<trans_z type="fixed"></trans_z>
			<rot_x type="fixed"></rot_x>
			<rot_y type="fixed"></rot_y>
			<rot_z type="fixed"></rot_z>
		</rigid_body>
		<rigid_body mat="2">
			<trans_x type="fixed"></trans_x>
			<trans_y type="fixed"></trans_y>
			<trans_z type="fixed"></trans_z>
			<rot_x type="fixed"></rot_x>
			<rot_y type="fixed"></rot_y>
			<rot_z type="fixed"></rot_z>
		</rigid_body>
		<rigid_body mat="3">
			<trans_x type="prescribed" lc="1">1</trans_x>
			<trans_y type="prescribed" lc="2">1</trans_y>
			<trans_z type="fixed"></trans_z>
			<rot_x type="fixed"></rot_x>
			<rot_y type="fixed"></rot_y>
			<rot_z type="prescribed" lc="3">1</rot_z>
		</rigid_body>
		<rigid_body mat="4">
			<trans_z type="fixed"></trans_z>
			<rot_x type="fixed"></rot_x>
			<rot_y type="fixed"></rot_y>
		</rigid_body>
		<rigid_body mat="6">
			<trans_z type="fixed"></trans_z>
			<rot_x type="fixed"></rot_x>
			<rot_y type="fixed"></rot_y>
			<rot_z type="fixed"></rot_z>
		</rigid_body>
		<rigid_body mat="7">
			<trans_z type="fixed"></trans_z>
			<rot_x type="fixed"></rot_x>
			<rot_y type="fixed"></rot_y>
		</rigid_body>
		<rigid_body mat="8">
			<trans_z type="fixed"></trans_z>
			<rot_x type="fixed"></rot_x>
			<rot_y type="fixed"></rot_y>
		</rigid_body>
		<rigid_body mat="9">
			<trans_z type="fixed"></trans_z>
			<rot_x type="fixed"></rot_x>
			<rot_y type="fixed"></rot_y>
		</rigid_body>
		<rigid_body mat="10">
			<trans_z type="fixed"></trans_z>
			<rot_x type="fixed"></rot_x>
			<rot_y type="fixed"></rot_y>
		</rigid_body>
		<rigid_body mat="12">
			<trans_z type="fixed"></trans_z>
			<rot_x type="fixed"></rot_x>
			<rot_y type="fixed"></rot_y>
		</rigid_body>
		<rigid_body mat="13">
			<trans_z type="fixed"></trans_z>
			<rot_x type="fixed"></rot_x>
			<rot_y type="fixed"></rot_y>
		</rigid_body>
		<rigid_body mat="14">
			<trans_z type="fixed"></trans_z>
			<rot_x type="fixed"></rot_x>
			<rot_y type="fixed"></rot_y>
		</rigid_body>
		<rigid_body mat="15">
			<trans_z type="fixed"></trans_z>
			<rot_x type="fixed"></rot_x>
			<rot_y type="fixed"></rot_y>
		</rigid_body>
		<rigid_body mat="16">
			<trans_z type="fixed"></trans_z>
			<rot_x type="fixed"></rot_x>
			<rot_y type="fixed"></rot_y>
		</rigid_body>
	</Constraints>
	<LoadData>
		<loadcurve id="1">
			<loadpoint>0,0</loadpoint>
			<loadpoint>10,-5</loadpoint>
			<loadpoint>20,0.082</loadpoint>
			<loadpoint>30,43.068</loadpoint>
			<loadpoint>40,50.112</loadpoint>
			<loadpoint>50,156.157</loadpoint>
			<loadpoint>60,160</loadpoint>
		</loadcurve>
		<loadcurve id="2">
			<loadpoint>0,0</loadpoint>
			<loadpoint>10,5</loadpoint>
			<loadpoint>20,-4.41</loadpoint>
			<loadpoint>30,-7.219</loadpoint>
			<loadpoint>40,5.583</loadpoint>
			<loadpoint>50,104.343</loadpoint>
			<loadpoint>60,110</loadpoint>
		</loadcurve>
		<loadcurve id="3">
			<loadpoint>0,0</loadpoint>
			<loadpoint>10,0.4</loadpoint>
			<loadpoint>20,0.4</loadpoint>
			<loadpoint>30,0</loadpoint>
			<loadpoint>40,-0.1</loadpoint>
			<loadpoint>50,-0.7</loadpoint>
			<loadpoint>60,-0.7</loadpoint>
		</loadcurve>
		<loadcurve id="4" type="step">
			<loadpoint>0,0</loadpoint>
			<loadpoint>23,3</loadpoint>
			<loadpoint>60,3</loadpoint>
		</loadcurve>
	</LoadData>
	<Output>
		<plotfile type="febio"></plotfile>
	    <logfile>
			<element_data data="Ey">412</element_data>
		</logfile>
	
	</Output>
</febio_spec>
