<?xml version="1.0" encoding="ISO-8859-1"?>
<!--
Problem Description:
	A rigid block subject to gravity bounces off a deformable 25 x 25 element membrane,
	also subject to gravity.
Main Features:
	Facet to facet contact
	Dynamic analysis
Secondary Features:
	Body force
Materials:
	Neo-Hookean
	Rigid Body
Degrees of Freedom: 3457
Results:
	Solver: Pardiso
	Steps Completed: 50
	Equilibrium Iterations: 405
	Right Hand Evaluations: 455
	Siffness Reformations: 66
	Other:
		The plate has a max z-displacement of -0.3727 (node 1982) at time t=5.
 
Comments:
	
-->
<febio_spec version="1.2">
	<Control>
		<title>Dynamic Membrane and Block</title>
		<time_steps>50</time_steps>
		<step_size>0.1</step_size>
		<max_refs>15</max_refs>
		<max_ups>10</max_ups>
		<dtol>0.001</dtol>
		<etol>0.01</etol>
		<rtol>0</rtol>
		<lstol>99999</lstol>
		<plot_level>PLOT_DEFAULT</plot_level>
		<analysis type="dynamic"></analysis>
	</Control>
	<Material>
		<material id="1" name="Material 1" type="neo-Hookean">
			<E>500</E>
			<v>0.4</v>
		</material>
		<material id="2" name="Material 2" type="rigid body">
			<density>1</density>
		</material>
	</Material>
	<Geometry>
		<Nodes>
			<node id="1">-5.0000000e-001,-5.0000000e-001, 1.3739200e+000</node>
			<node id="2">-5.0000000e-001,-5.0000000e-001, 1.4739200e+000</node>
			<node id="3">-5.0000000e-001,-5.0000000e-001, 1.5739200e+000</node>
			<node id="4">-5.0000000e-001,-5.0000000e-001, 1.6739200e+000</node>
			<node id="5">-5.0000000e-001,-5.0000000e-001, 1.7739200e+000</node>
			<node id="6">-5.0000000e-001,-5.0000000e-001, 1.8739200e+000</node>
			<node id="7">-5.0000000e-001,-5.0000000e-001, 1.9739200e+000</node>
			<node id="8">-5.0000000e-001,-5.0000000e-001, 2.0739200e+000</node>
			<node id="9">-5.0000000e-001,-5.0000000e-001, 2.1739200e+000</node>
			<node id="10">-5.0000000e-001,-5.0000000e-001, 2.2739200e+000</node>
			<node id="11">-5.0000000e-001,-5.0000000e-001, 2.3739200e+000</node>
			<node id="12">-5.0000000e-001,-4.0000000e-001, 1.3739200e+000</node>
			<node id="13">-5.0000000e-001,-4.0000000e-001, 1.4739200e+000</node>
			<node id="14">-5.0000000e-001,-4.0000000e-001, 1.5739200e+000</node>
			<node id="15">-5.0000000e-001,-4.0000000e-001, 1.6739200e+000</node>
			<node id="16">-5.0000000e-001,-4.0000000e-001, 1.7739200e+000</node>
			<node id="17">-5.0000000e-001,-4.0000000e-001, 1.8739200e+000</node>
			<node id="18">-5.0000000e-001,-4.0000000e-001, 1.9739200e+000</node>
			<node id="19">-5.0000000e-001,-4.0000000e-001, 2.0739200e+000</node>
			<node id="20">-5.0000000e-001,-4.0000000e-001, 2.1739200e+000</node>
<!-- ... 2663 like lines cut -->
		</Nodes>
		<Elements>
			<hex8 id="1" mat="2">     1,   122,   133,    12,     2,   123,   134,    13</hex8>
			<hex8 id="2" mat="2">     2,   123,   134,    13,     3,   124,   135,    14</hex8>
			<hex8 id="3" mat="2">     3,   124,   135,    14,     4,   125,   136,    15</hex8>
			<hex8 id="4" mat="2">     4,   125,   136,    15,     5,   126,   137,    16</hex8>
			<hex8 id="5" mat="2">     5,   126,   137,    16,     6,   127,   138,    17</hex8>
			<hex8 id="6" mat="2">     6,   127,   138,    17,     7,   128,   139,    18</hex8>
			<hex8 id="7" mat="2">     7,   128,   139,    18,     8,   129,   140,    19</hex8>
			<hex8 id="8" mat="2">     8,   129,   140,    19,     9,   130,   141,    20</hex8>
			<hex8 id="9" mat="2">     9,   130,   141,    20,    10,   131,   142,    21</hex8>
			<hex8 id="10" mat="2">    10,   131,   142,    21,    11,   132,   143,    22</hex8>
			<hex8 id="11" mat="2">    12,   133,   144,    23,    13,   134,   145,    24</hex8>
			<hex8 id="12" mat="2">    13,   134,   145,    24,    14,   135,   146,    25</hex8>
			<hex8 id="13" mat="2">    14,   135,   146,    25,    15,   136,   147,    26</hex8>
			<hex8 id="14" mat="2">    15,   136,   147,    26,    16,   137,   148,    27</hex8>
			<hex8 id="15" mat="2">    16,   137,   148,    27,    17,   138,   149,    28</hex8>
			<hex8 id="16" mat="2">    17,   138,   149,    28,    18,   139,   150,    29</hex8>
			<hex8 id="17" mat="2">    18,   139,   150,    29,    19,   140,   151,    30</hex8>
			<hex8 id="18" mat="2">    19,   140,   151,    30,    20,   141,   152,    31</hex8>
			<hex8 id="19" mat="2">    20,   141,   152,    31,    21,   142,   153,    32</hex8>
			<hex8 id="20" mat="2">    21,   142,   153,    32,    22,   143,   154,    33</hex8>
<!-- ... 1605 like lines cut -->
		</Elements>
	</Geometry>
	<Boundary>
		<fix>
			<node id="1332" bc="xyz"></node>
			<node id="1333" bc="xyz"></node>
			<node id="1334" bc="xyz"></node>
			<node id="1335" bc="xyz"></node>
			<node id="1336" bc="xyz"></node>
			<node id="1337" bc="xyz"></node>
			<node id="1338" bc="xyz"></node>
			<node id="1339" bc="xyz"></node>
			<node id="1340" bc="xyz"></node>
			<node id="1341" bc="xyz"></node>
			<node id="1342" bc="xyz"></node>
			<node id="1343" bc="xyz"></node>
			<node id="1344" bc="xyz"></node>
			<node id="1345" bc="xyz"></node>
			<node id="1346" bc="xyz"></node>
			<node id="1347" bc="xyz"></node>
			<node id="1348" bc="xyz"></node>
			<node id="1349" bc="xyz"></node>
			<node id="1350" bc="xyz"></node>
			<node id="1351" bc="xyz"></node>
<!-- ... 180 like lines cut -->
		</fix>
		<contact type="facet-to-facet sliding">
			<laugon>0</laugon>
			<tolerance>0.1</tolerance>
			<two_pass>1</two_pass>
			<penalty>100</penalty>
			<surface type="master">
				<quad4 id="1">  1333,  1385,  1387,  1335</quad4>
				<quad4 id="2">  1335,  1387,  1389,  1337</quad4>
				<quad4 id="3">  1337,  1389,  1391,  1339</quad4>
				<quad4 id="4">  1339,  1391,  1393,  1341</quad4>
				<quad4 id="5">  1341,  1393,  1395,  1343</quad4>
				<quad4 id="6">  1343,  1395,  1397,  1345</quad4>
				<quad4 id="7">  1345,  1397,  1399,  1347</quad4>
				<quad4 id="8">  1347,  1399,  1401,  1349</quad4>
				<quad4 id="9">  1349,  1401,  1403,  1351</quad4>
				<quad4 id="10">  1351,  1403,  1405,  1353</quad4>
				<quad4 id="11">  1353,  1405,  1407,  1355</quad4>
				<quad4 id="12">  1355,  1407,  1409,  1357</quad4>
				<quad4 id="13">  1357,  1409,  1411,  1359</quad4>
				<quad4 id="14">  1359,  1411,  1413,  1361</quad4>
				<quad4 id="15">  1361,  1413,  1415,  1363</quad4>
				<quad4 id="16">  1363,  1415,  1417,  1365</quad4>
				<quad4 id="17">  1365,  1417,  1419,  1367</quad4>
				<quad4 id="18">  1367,  1419,  1421,  1369</quad4>
				<quad4 id="19">  1369,  1421,  1423,  1371</quad4>
				<quad4 id="20">  1371,  1423,  1425,  1373</quad4>
<!-- ... 605 like lines cut -->
			</surface>
			<surface type="slave">
				<quad4 id="1">   100,   111,   232,   221</quad4>
				<quad4 id="2">    89,   100,   221,   210</quad4>
				<quad4 id="3">    78,    89,   210,   199</quad4>
				<quad4 id="4">    67,    78,   199,   188</quad4>
				<quad4 id="5">    56,    67,   188,   177</quad4>
				<quad4 id="6">    45,    56,   177,   166</quad4>
				<quad4 id="7">    34,    45,   166,   155</quad4>
				<quad4 id="8">    23,    34,   155,   144</quad4>
				<quad4 id="9">    12,    23,   144,   133</quad4>
				<quad4 id="10">     1,    12,   133,   122</quad4>
				<quad4 id="11">   221,   232,   353,   342</quad4>
				<quad4 id="12">   210,   221,   342,   331</quad4>
				<quad4 id="13">   199,   210,   331,   320</quad4>
				<quad4 id="14">   188,   199,   320,   309</quad4>
				<quad4 id="15">   177,   188,   309,   298</quad4>
				<quad4 id="16">   166,   177,   298,   287</quad4>
				<quad4 id="17">   155,   166,   287,   276</quad4>
				<quad4 id="18">   144,   155,   276,   265</quad4>
				<quad4 id="19">   133,   144,   265,   254</quad4>
				<quad4 id="20">   122,   133,   254,   243</quad4>
<!-- ... 80 like lines cut -->
			</surface>
		</contact>
	</Boundary>
	<Loads>
		<body_force>
			<z lc="1">1</z>
		</body_force>
	</Loads>
	<Constraints>
		<rigid_body mat="2">
			<trans_x type="fixed"></trans_x>
			<trans_y type="fixed"></trans_y>
			<rot_x type="fixed"></rot_x>
			<rot_y type="fixed"></rot_y>
			<rot_z type="fixed"></rot_z>
		</rigid_body>
	</Constraints>
	<LoadData>
		<loadcurve id="1">
			<loadpoint>0,1</loadpoint>
			<loadpoint>1,1</loadpoint>
		</loadcurve>
	</LoadData>
	<Output>
		<plotfile type="febio"></plotfile>
	    <logfile>
			<element_data data="sx">1313</element_data>
		</logfile>
	</Output>
</febio_spec>
