<?xml version="1.0" encoding="ISO-8859-1"?>
<!--
Problem Description:
	A 10 x 10 element planar block rises (with compression) in plane strain
	over a ramped rigid bump.
Main Features:
	Sliding with gaps contact
Secondary Features:
	Augmented Lagrangian
	Plane strain
Materials:
	Mooney-Rivlin
	Rigid Body
Degrees of Freedom: 462
Results:
	Solver: Pardiso
	Steps Completed: 24
	Equilibrium Iterations: 185
	Right Hand Evaluations: 257
	Siffness Reformations: 185
	Other:
		The left bottom corner (node 2) has a y-displacement of 0.030 at time t=1.2.
 
Comments:
	This model has significant pentration without using Augmented Lagrangian.  The sliding_with_gaps
	contact algorithm performed significantly better than the other three contact algorithms.
-->
<febio_spec version="1.2">
	<Control>
		<title>Planar Block and Ramp</title>
		<time_steps>24</time_steps>
		<step_size>0.1</step_size>
		<max_refs>100</max_refs>
		<max_ups>0</max_ups>
		<dtol>0.001</dtol>
		<etol>0.01</etol>
		<rtol>0</rtol>
		<lstol>999</lstol>
		<pressure_stiffness>0</pressure_stiffness>
		<plot_level>PLOT_DEFAULT</plot_level>
		<plane_strain>1</plane_strain>
		<time_stepper>
			<dtmin>0.1</dtmin>
			<dtmax lc="2"></dtmax>
			<max_retries>5</max_retries>
			<opt_iter>24</opt_iter>
		</time_stepper>
	</Control>
	<Material>
		<material id="1" name="Material 1" type="Mooney-Rivlin">
			<c1>1</c1>
			<c2>0</c2>
			<k>100</k>
		</material>
		<material id="2" name="Material 2" type="rigid body">
			<density>1</density>
		</material>
	</Material>
	<Geometry>
		<Nodes>
			<node id="1">-1.2000000e+000,-2.0000000e-001, 0.0000000e+000</node>
			<node id="2">-1.2000000e+000,-2.0000000e-001, 1.0000000e-001</node>
			<node id="3">-1.2000000e+000,-1.0000000e-001, 0.0000000e+000</node>
			<node id="4">-1.2000000e+000,-1.0000000e-001, 1.0000000e-001</node>
			<node id="5">-1.2000000e+000, 0.0000000e+000, 0.0000000e+000</node>
			<node id="6">-1.2000000e+000, 0.0000000e+000, 1.0000000e-001</node>
			<node id="7">-1.2000000e+000, 1.0000000e-001, 0.0000000e+000</node>
			<node id="8">-1.2000000e+000, 1.0000000e-001, 1.0000000e-001</node>
			<node id="9">-1.2000000e+000, 2.0000000e-001, 0.0000000e+000</node>
			<node id="10">-1.2000000e+000, 2.0000000e-001, 1.0000000e-001</node>
			<node id="11">-1.2000000e+000, 3.0000000e-001, 0.0000000e+000</node>
			<node id="12">-1.2000000e+000, 3.0000000e-001, 1.0000000e-001</node>
			<node id="13">-1.2000000e+000, 4.0000000e-001, 0.0000000e+000</node>
			<node id="14">-1.2000000e+000, 4.0000000e-001, 1.0000000e-001</node>
			<node id="15">-1.2000000e+000, 5.0000000e-001, 0.0000000e+000</node>
			<node id="16">-1.2000000e+000, 5.0000000e-001, 1.0000000e-001</node>
			<node id="17">-1.2000000e+000, 6.0000000e-001, 0.0000000e+000</node>
			<node id="18">-1.2000000e+000, 6.0000000e-001, 1.0000000e-001</node>
			<node id="19">-1.2000000e+000, 7.0000000e-001, 0.0000000e+000</node>
			<node id="20">-1.2000000e+000, 7.0000000e-001, 1.0000000e-001</node>
<!-- ... 238 like lines cut -->
		</Nodes>
		<Elements>
			<hex8 id="1" mat="1">     1,    23,    25,     3,     2,    24,    26,     4</hex8>
			<hex8 id="2" mat="1">     3,    25,    27,     5,     4,    26,    28,     6</hex8>
			<hex8 id="3" mat="1">     5,    27,    29,     7,     6,    28,    30,     8</hex8>
			<hex8 id="4" mat="1">     7,    29,    31,     9,     8,    30,    32,    10</hex8>
			<hex8 id="5" mat="1">     9,    31,    33,    11,    10,    32,    34,    12</hex8>
			<hex8 id="6" mat="1">    11,    33,    35,    13,    12,    34,    36,    14</hex8>
			<hex8 id="7" mat="1">    13,    35,    37,    15,    14,    36,    38,    16</hex8>
			<hex8 id="8" mat="1">    15,    37,    39,    17,    16,    38,    40,    18</hex8>
			<hex8 id="9" mat="1">    17,    39,    41,    19,    18,    40,    42,    20</hex8>
			<hex8 id="10" mat="1">    19,    41,    43,    21,    20,    42,    44,    22</hex8>
			<hex8 id="11" mat="1">    23,    45,    47,    25,    24,    46,    48,    26</hex8>
			<hex8 id="12" mat="1">    25,    47,    49,    27,    26,    48,    50,    28</hex8>
			<hex8 id="13" mat="1">    27,    49,    51,    29,    28,    50,    52,    30</hex8>
			<hex8 id="14" mat="1">    29,    51,    53,    31,    30,    52,    54,    32</hex8>
			<hex8 id="15" mat="1">    31,    53,    55,    33,    32,    54,    56,    34</hex8>
			<hex8 id="16" mat="1">    33,    55,    57,    35,    34,    56,    58,    36</hex8>
			<hex8 id="17" mat="1">    35,    57,    59,    37,    36,    58,    60,    38</hex8>
			<hex8 id="18" mat="1">    37,    59,    61,    39,    38,    60,    62,    40</hex8>
			<hex8 id="19" mat="1">    39,    61,    63,    41,    40,    62,    64,    42</hex8>
			<hex8 id="20" mat="1">    41,    63,    65,    43,    42,    64,    66,    44</hex8>
<!-- ... 83 like lines cut -->
		</Elements>
	</Geometry>
	<Boundary>
		<fix>
			<node id="21" bc="y"></node>
			<node id="22" bc="y"></node>
			<node id="43" bc="y"></node>
			<node id="44" bc="y"></node>
			<node id="65" bc="y"></node>
			<node id="66" bc="y"></node>
			<node id="87" bc="y"></node>
			<node id="88" bc="y"></node>
			<node id="109" bc="y"></node>
			<node id="110" bc="y"></node>
			<node id="131" bc="y"></node>
			<node id="132" bc="y"></node>
			<node id="153" bc="y"></node>
			<node id="154" bc="y"></node>
			<node id="175" bc="y"></node>
			<node id="176" bc="y"></node>
			<node id="197" bc="y"></node>
			<node id="198" bc="y"></node>
			<node id="219" bc="y"></node>
			<node id="220" bc="y"></node>
			<node id="241" bc="y"></node>
			<node id="242" bc="y"></node>
		</fix>
		<prescribe>
			<node id="21" bc="x" lc="1">1</node>
			<node id="22" bc="x" lc="1">1</node>
			<node id="43" bc="x" lc="1">1</node>
			<node id="44" bc="x" lc="1">1</node>
			<node id="65" bc="x" lc="1">1</node>
			<node id="66" bc="x" lc="1">1</node>
			<node id="87" bc="x" lc="1">1</node>
			<node id="88" bc="x" lc="1">1</node>
			<node id="109" bc="x" lc="1">1</node>
			<node id="110" bc="x" lc="1">1</node>
			<node id="131" bc="x" lc="1">1</node>
			<node id="132" bc="x" lc="1">1</node>
			<node id="153" bc="x" lc="1">1</node>
			<node id="154" bc="x" lc="1">1</node>
			<node id="175" bc="x" lc="1">1</node>
			<node id="176" bc="x" lc="1">1</node>
			<node id="197" bc="x" lc="1">1</node>
			<node id="198" bc="x" lc="1">1</node>
			<node id="219" bc="x" lc="1">1</node>
			<node id="220" bc="x" lc="1">1</node>
			<node id="241" bc="x" lc="1">1</node>
			<node id="242" bc="x" lc="1">1</node>
		</prescribe>
		<contact type="sliding_with_gaps">
			<laugon>1</laugon>
			<tolerance>0.005</tolerance>
			<two_pass>0</two_pass>
			<penalty>1</penalty>
			<auto_penalty>1</auto_penalty>
			<surface type="master">
				<quad4 id="1">   257,   253,   254,   258</quad4>
				<quad4 id="2">   253,   249,   250,   254</quad4>
				<quad4 id="3">   249,   245,   246,   250</quad4>
			</surface>
			<surface type="slave">
				<quad4 id="1">     1,    23,    24,     2</quad4>
				<quad4 id="2">    23,    45,    46,    24</quad4>
				<quad4 id="3">    45,    67,    68,    46</quad4>
				<quad4 id="4">    67,    89,    90,    68</quad4>
				<quad4 id="5">    89,   111,   112,    90</quad4>
				<quad4 id="6">   111,   133,   134,   112</quad4>
				<quad4 id="7">   133,   155,   156,   134</quad4>
				<quad4 id="8">   155,   177,   178,   156</quad4>
				<quad4 id="9">   177,   199,   200,   178</quad4>
				<quad4 id="10">   199,   221,   222,   200</quad4>
			</surface>
		</contact>
	</Boundary>
	<Constraints>
		<rigid_body mat="2">
			<trans_x type="fixed"></trans_x>
			<trans_y type="fixed"></trans_y>
			<trans_z type="fixed"></trans_z>
			<rot_x type="fixed"></rot_x>
			<rot_y type="fixed"></rot_y>
			<rot_z type="fixed"></rot_z>
		</rigid_body>
	</Constraints>
	<LoadData>
		<loadcurve id="1">
			<loadpoint>0,0</loadpoint>
			<loadpoint>2.4,2.4</loadpoint>
		</loadcurve>
        <loadcurve id="2" type="step">
			<loadpoint>0,0</loadpoint>
			<loadpoint>1.4,0.1</loadpoint>
			<loadpoint>2.4,0.1</loadpoint>
		</loadcurve>	
	</LoadData>
	<Output>
		<plotfile type="febio"></plotfile>
	    <logfile>
			<element_data data="Ex">33</element_data>
	    </logfile>
	</Output>
</febio_spec>
