<?xml version="1.0" encoding="UTF-8"?>
<!--
Problem Description:
	Two blocks undergo confined compression with non-conforming mesh contact
	between them.  The bottom block is defined with a variable thickness mesh.
Main Features:
	Sliding2 contact
Secondary Features:
	
Materials:
	Holmes-Mow
Degrees of Freedom: 600
Results:
	Solver: Pardiso
	Steps Completed: 20
	Equilibrium Iterations: 40
	Right Hand Evaluations: 60
	Siffness Reformations: 40
	Other:
		The contact surface has a y-displacement of -0.255 at time t=5000
 
Comments:
	
-->
<febio_spec version="1.2">
	<Control>
		<title>Confined Compression</title>
		<time_steps>20</time_steps>
		<step_size>250</step_size>
		<max_refs>99</max_refs>
		<max_ups>0</max_ups>
		<dtol>0.001</dtol>
		<etol>0.01</etol>
		<rtol>0</rtol>
		<lstol>0.9</lstol>
		<plot_level>PLOT_DEFAULT</plot_level>
	</Control>
	<Material>
		<material id="1" name="Material 1" type="Holmes-Mow">
		  <E>0.4</E>
		  <v>0</v>
		  <beta>0.35</beta>
		</material>
	</Material>
	<Geometry>
		<Nodes>
			<node id="1"> -6.0000000000000000e+00,  0.0000000000000000e+00,  0.0000000000000000e+00</node>
			<node id="2"> -6.0000000000000000e+00,  0.0000000000000000e+00,  1.0000000000000000e+00</node>
			<node id="3"> -6.0000000000000000e+00,  1.6666666999999999e-01,  0.0000000000000000e+00</node>
			<node id="4"> -6.0000000000000000e+00,  1.6666666999999999e-01,  1.0000000000000000e+00</node>
			<node id="5"> -6.0000000000000000e+00,  3.3333332999999998e-01,  0.0000000000000000e+00</node>
			<node id="6"> -6.0000000000000000e+00,  3.3333332999999998e-01,  1.0000000000000000e+00</node>
			<node id="7"> -6.0000000000000000e+00,  5.0000000000000000e-01,  0.0000000000000000e+00</node>
			<node id="8"> -6.0000000000000000e+00,  5.0000000000000000e-01,  1.0000000000000000e+00</node>
			<node id="9"> -6.0000000000000000e+00,  6.6666667000000002e-01,  0.0000000000000000e+00</node>
			<node id="10"> -6.0000000000000000e+00,  6.6666667000000002e-01,  1.0000000000000000e+00</node>
			<node id="11"> -6.0000000000000000e+00,  8.3333332999999998e-01,  0.0000000000000000e+00</node>
			<node id="12"> -6.0000000000000000e+00,  8.3333332999999998e-01,  1.0000000000000000e+00</node>
			<node id="13"> -6.0000000000000000e+00,  1.0000000000000000e+00,  0.0000000000000000e+00</node>
			<node id="14"> -6.0000000000000000e+00,  1.0000000000000000e+00,  1.0000000000000000e+00</node>
			<node id="15"> -6.0000000000000000e+00,  1.1666666999999999e+00,  0.0000000000000000e+00</node>
			<node id="16"> -6.0000000000000000e+00,  1.1666666999999999e+00,  1.0000000000000000e+00</node>
			<node id="17"> -6.0000000000000000e+00,  1.3333333000000001e+00,  0.0000000000000000e+00</node>
			<node id="18"> -6.0000000000000000e+00,  1.3333333000000001e+00,  1.0000000000000000e+00</node>
			<node id="19"> -6.0000000000000000e+00,  1.5000000000000000e+00,  0.0000000000000000e+00</node>
			<node id="20"> -6.0000000000000000e+00,  1.5000000000000000e+00,  1.0000000000000000e+00</node>
<!-- ... 368 like lines cut -->
		</Nodes>
		<Elements>
			<hex8 id="1" mat="1"> 1, 27, 29, 3, 2, 28, 30, 4</hex8>
			<hex8 id="2" mat="1"> 3, 29, 31, 5, 4, 30, 32, 6</hex8>
			<hex8 id="3" mat="1"> 5, 31, 33, 7, 6, 32, 34, 8</hex8>
			<hex8 id="4" mat="1"> 7, 33, 35, 9, 8, 34, 36, 10</hex8>
			<hex8 id="5" mat="1"> 9, 35, 37, 11, 10, 36, 38, 12</hex8>
			<hex8 id="6" mat="1"> 11, 37, 39, 13, 12, 38, 40, 14</hex8>
			<hex8 id="7" mat="1"> 13, 39, 41, 15, 14, 40, 42, 16</hex8>
			<hex8 id="8" mat="1"> 15, 41, 43, 17, 16, 42, 44, 18</hex8>
			<hex8 id="9" mat="1"> 17, 43, 45, 19, 18, 44, 46, 20</hex8>
			<hex8 id="10" mat="1"> 19, 45, 47, 21, 20, 46, 48, 22</hex8>
			<hex8 id="11" mat="1"> 21, 47, 49, 23, 22, 48, 50, 24</hex8>
			<hex8 id="12" mat="1"> 23, 49, 51, 25, 24, 50, 52, 26</hex8>
			<hex8 id="13" mat="1"> 27, 53, 55, 29, 28, 54, 56, 30</hex8>
			<hex8 id="14" mat="1"> 29, 55, 57, 31, 30, 56, 58, 32</hex8>
			<hex8 id="15" mat="1"> 31, 57, 59, 33, 32, 58, 60, 34</hex8>
			<hex8 id="16" mat="1"> 33, 59, 61, 35, 34, 60, 62, 36</hex8>
			<hex8 id="17" mat="1"> 35, 61, 63, 37, 36, 62, 64, 38</hex8>
			<hex8 id="18" mat="1"> 37, 63, 65, 39, 38, 64, 66, 40</hex8>
			<hex8 id="19" mat="1"> 39, 65, 67, 41, 40, 66, 68, 42</hex8>
			<hex8 id="20" mat="1"> 41, 67, 69, 43, 42, 68, 70, 44</hex8>
<!-- ... 124 like lines cut -->
		</Elements>
	</Geometry>
	<Boundary>
		<fix>
			<node id="1" bc="z"></node>
			<node id="2" bc="z"></node>
			<node id="3" bc="z"></node>
			<node id="4" bc="z"></node>
			<node id="5" bc="z"></node>
			<node id="6" bc="z"></node>
			<node id="7" bc="z"></node>
			<node id="8" bc="z"></node>
			<node id="9" bc="z"></node>
			<node id="10" bc="z"></node>
			<node id="11" bc="z"></node>
			<node id="12" bc="z"></node>
			<node id="13" bc="z"></node>
			<node id="14" bc="z"></node>
			<node id="15" bc="z"></node>
			<node id="16" bc="z"></node>
			<node id="17" bc="z"></node>
			<node id="18" bc="z"></node>
			<node id="19" bc="z"></node>
			<node id="20" bc="z"></node>
<!-- ... 136 like lines cut -->
			<node id="1" bc="x"></node>
			<node id="2" bc="x"></node>
			<node id="3" bc="x"></node>
			<node id="4" bc="x"></node>
			<node id="5" bc="x"></node>
			<node id="6" bc="x"></node>
			<node id="7" bc="x"></node>
			<node id="8" bc="x"></node>
			<node id="9" bc="x"></node>
			<node id="10" bc="x"></node>
			<node id="11" bc="x"></node>
			<node id="12" bc="x"></node>
			<node id="13" bc="x"></node>
			<node id="14" bc="x"></node>
			<node id="15" bc="x"></node>
			<node id="16" bc="x"></node>
			<node id="17" bc="x"></node>
			<node id="18" bc="x"></node>
			<node id="19" bc="x"></node>
			<node id="20" bc="x"></node>
<!-- ... 32 like lines cut -->
			<node id="157" bc="z"></node>
			<node id="158" bc="z"></node>
			<node id="159" bc="z"></node>
			<node id="160" bc="z"></node>
			<node id="161" bc="z"></node>
			<node id="162" bc="z"></node>
			<node id="163" bc="z"></node>
			<node id="164" bc="z"></node>
			<node id="165" bc="z"></node>
			<node id="166" bc="z"></node>
			<node id="167" bc="z"></node>
			<node id="168" bc="z"></node>
			<node id="169" bc="z"></node>
			<node id="170" bc="z"></node>
			<node id="171" bc="z"></node>
			<node id="172" bc="z"></node>
			<node id="173" bc="z"></node>
			<node id="174" bc="z"></node>
			<node id="175" bc="z"></node>
			<node id="176" bc="z"></node>
<!-- ... 212 like lines cut -->
			<node id="157" bc="x"></node>
			<node id="158" bc="x"></node>
			<node id="159" bc="x"></node>
			<node id="160" bc="x"></node>
			<node id="161" bc="x"></node>
			<node id="162" bc="x"></node>
			<node id="163" bc="x"></node>
			<node id="164" bc="x"></node>
			<node id="165" bc="x"></node>
			<node id="166" bc="x"></node>
			<node id="167" bc="x"></node>
			<node id="168" bc="x"></node>
			<node id="169" bc="x"></node>
			<node id="170" bc="x"></node>
			<node id="171" bc="x"></node>
			<node id="172" bc="x"></node>
			<node id="173" bc="x"></node>
			<node id="174" bc="x"></node>
			<node id="175" bc="x"></node>
			<node id="176" bc="x"></node>
<!-- ... 96 like lines cut -->
			<node id="157" bc="y"></node>
			<node id="158" bc="y"></node>
			<node id="215" bc="y"></node>
			<node id="216" bc="y"></node>
			<node id="273" bc="y"></node>
			<node id="274" bc="y"></node>
			<node id="331" bc="y"></node>
			<node id="332" bc="y"></node>
		</fix>
		<prescribe>
			<node id="25" bc="y" lc="1">  1.0000000000000000e+00</node>
			<node id="26" bc="y" lc="1">  1.0000000000000000e+00</node>
			<node id="51" bc="y" lc="1">  1.0000000000000000e+00</node>
			<node id="52" bc="y" lc="1">  1.0000000000000000e+00</node>
			<node id="77" bc="y" lc="1">  1.0000000000000000e+00</node>
			<node id="78" bc="y" lc="1">  1.0000000000000000e+00</node>
			<node id="103" bc="y" lc="1">  1.0000000000000000e+00</node>
			<node id="104" bc="y" lc="1">  1.0000000000000000e+00</node>
			<node id="129" bc="y" lc="1">  1.0000000000000000e+00</node>
			<node id="130" bc="y" lc="1">  1.0000000000000000e+00</node>
			<node id="155" bc="y" lc="1">  1.0000000000000000e+00</node>
			<node id="156" bc="y" lc="1">  1.0000000000000000e+00</node>
		</prescribe>
		<contact type="sliding2">
			<laugon>0</laugon>
			<tolerance>0.05</tolerance>
			<two_pass>1</two_pass>
			<penalty>1</penalty>
			<symmetric_stiffness>0</symmetric_stiffness>
			<auto_penalty>1</auto_penalty>
			<surface type="slave" format="element face">
				<quad4 id="1"> 88, 3</quad4>
				<quad4 id="2"> 116, 3</quad4>
				<quad4 id="3"> 144, 3</quad4>
			</surface>
			<surface type="master" format="element face">
				<quad4 id="1"> 1, 1</quad4>
				<quad4 id="2"> 13, 1</quad4>
				<quad4 id="3"> 25, 1</quad4>
				<quad4 id="4"> 37, 1</quad4>
				<quad4 id="5"> 49, 1</quad4>
			</surface>
		</contact>
	</Boundary>
	<LoadData>
		<loadcurve id="1">
			<loadpoint>  0.0000000000000000e+00,  0.0000000000000000e+00</loadpoint>
			<loadpoint>  5.0000000000000000e+03, -5.0000000000000000e-01</loadpoint>
			<loadpoint>  1.0000000000000000e+04, -5.0000000000000000e-01</loadpoint>
		</loadcurve>
	</LoadData>
	<Output>
		<plotfile type="febio"></plotfile>
	    <logfile>
			<element_data data="sy">60</element_data>
		</logfile>
	</Output>
</febio_spec>
