<?xml version="1.0" encoding="ISO-8859-1"?>
<!--
Problem Description:
	Two incongruent cylindrical sections are compressed against each other in plain strain.
Main Features:
	Sliding2 non-symmetric contact
	Rigid contact
Secondary Features:
	Optional output of the matrix condition number using the SuperLU solver (remove the
	comment lines below to activate this option).
Materials:
	Neo-Hookean
Degrees of Freedom: 50332
Results:
	Solver: SuperLU
	Steps Completed: 20
	Equilibrium Iterations: 50
	Right Hand Evaluations: 70
	Siffness Reformations: 50
	Other:
		The lower edge of top cylinder has a y-displacement of -0.0512 (node 468)
		at time t=1.  The top edge of the bottom cylinder has a y-displacement of
		-0.0493 (node 378), so there is slight penetration.
 
Comments:
	The penetration is actually a bit better using Augmented Lagrangian, but this
	demonstrates that a reasonable penetration can be obtained with trial-and-error
	selection of the contact penalty parameter.  The other contact methods either
	error terminated or had too significant penetration.
-->
<febio_spec version="1.2">
	<Control>
		<title>untitled</title>
		<time_steps>20</time_steps>
		<step_size>0.05</step_size>
		<max_refs>50</max_refs>
		<max_ups>0</max_ups>
		<dtol>0.1</dtol>
		<etol>0.01</etol>
		<rtol>0</rtol>
		<lstol>999</lstol>
	</Control>
	<Material>
		<material id="1" name="Material 1" type="neo-Hookean">
			<E>1</E>
			<v>0.45</v>
		</material>
		<material id="2" name="Material 2" type="neo-Hookean">
			<E>1</E>
			<v>0.45</v>
		</material>
		<material id="3" name="Material 3" type="rigid body">
			<density>1</density>
		</material>
	</Material>
	<Geometry>
		<Nodes>
			<node id="1">-7.2346220e-008,-9.0000000e-001, 0.0000000e+000</node>
			<node id="2">-7.3351029e-008,-9.1250000e-001, 0.0000000e+000</node>
			<node id="3">-7.4355838e-008,-9.2500000e-001, 0.0000000e+000</node>
			<node id="4">-7.5360646e-008,-9.3750000e-001, 0.0000000e+000</node>
			<node id="5">-7.6365455e-008,-9.5000000e-001, 0.0000000e+000</node>
			<node id="6">-7.7370263e-008,-9.6250000e-001, 0.0000000e+000</node>
			<node id="7">-7.8375072e-008,-9.7500000e-001, 0.0000000e+000</node>
			<node id="8">-7.9379881e-008,-9.8750000e-001, 0.0000000e+000</node>
			<node id="9">-8.0384689e-008,-1.0000000e+000, 0.0000000e+000</node>
			<node id="10"> 2.2087033e-002,-8.9972894e-001, 0.0000000e+000</node>
			<node id="11"> 2.2393797e-002,-9.1222517e-001, 0.0000000e+000</node>
			<node id="12"> 2.2700562e-002,-9.2472141e-001, 0.0000000e+000</node>
			<node id="13"> 2.3007326e-002,-9.3721764e-001, 0.0000000e+000</node>
			<node id="14"> 2.3314090e-002,-9.4971388e-001, 0.0000000e+000</node>
			<node id="15"> 2.3620855e-002,-9.6221011e-001, 0.0000000e+000</node>
			<node id="16"> 2.3927619e-002,-9.7470635e-001, 0.0000000e+000</node>
			<node id="17"> 2.4234383e-002,-9.8720259e-001, 0.0000000e+000</node>
			<node id="18"> 2.4541148e-002,-9.9969882e-001, 0.0000000e+000</node>
			<node id="19"> 4.4160834e-002,-8.9891591e-001, 0.0000000e+000</node>
			<node id="20"> 4.4774179e-002,-9.1140086e-001, 0.0000000e+000</node>
<!-- ... 1816 like lines cut -->
		</Nodes>
		<Elements>
			<hex8 id="1" mat="1">     1,     2,    11,    10,   460,   461,   470,   469</hex8>
			<hex8 id="2" mat="1">     2,     3,    12,    11,   461,   462,   471,   470</hex8>
			<hex8 id="3" mat="1">     3,     4,    13,    12,   462,   463,   472,   471</hex8>
			<hex8 id="4" mat="1">     4,     5,    14,    13,   463,   464,   473,   472</hex8>
			<hex8 id="5" mat="1">     5,     6,    15,    14,   464,   465,   474,   473</hex8>
			<hex8 id="6" mat="1">     6,     7,    16,    15,   465,   466,   475,   474</hex8>
			<hex8 id="7" mat="1">     7,     8,    17,    16,   466,   467,   476,   475</hex8>
			<hex8 id="8" mat="1">     8,     9,    18,    17,   467,   468,   477,   476</hex8>
			<hex8 id="9" mat="1">    10,    11,    20,    19,   469,   470,   479,   478</hex8>
			<hex8 id="10" mat="1">    11,    12,    21,    20,   470,   471,   480,   479</hex8>
			<hex8 id="11" mat="1">    12,    13,    22,    21,   471,   472,   481,   480</hex8>
			<hex8 id="12" mat="1">    13,    14,    23,    22,   472,   473,   482,   481</hex8>
			<hex8 id="13" mat="1">    14,    15,    24,    23,   473,   474,   483,   482</hex8>
			<hex8 id="14" mat="1">    15,    16,    25,    24,   474,   475,   484,   483</hex8>
			<hex8 id="15" mat="1">    16,    17,    26,    25,   475,   476,   485,   484</hex8>
			<hex8 id="16" mat="1">    17,    18,    27,    26,   476,   477,   486,   485</hex8>
			<hex8 id="17" mat="1">    19,    20,    29,    28,   478,   479,   488,   487</hex8>
			<hex8 id="18" mat="1">    20,    21,    30,    29,   479,   480,   489,   488</hex8>
			<hex8 id="19" mat="1">    21,    22,    31,    30,   480,   481,   490,   489</hex8>
			<hex8 id="20" mat="1">    22,    23,    32,    31,   481,   482,   491,   490</hex8>
<!-- ... 780 like lines cut -->
		</Elements>
	</Geometry>
	<Boundary>
		<fix>
			<node id="1" bc="x"></node>
			<node id="2" bc="x"></node>
			<node id="3" bc="x"></node>
			<node id="4" bc="x"></node>
			<node id="5" bc="x"></node>
			<node id="6" bc="x"></node>
			<node id="7" bc="x"></node>
			<node id="8" bc="x"></node>
			<node id="9" bc="x"></node>
			<node id="460" bc="x"></node>
			<node id="461" bc="x"></node>
			<node id="462" bc="x"></node>
			<node id="463" bc="x"></node>
			<node id="464" bc="x"></node>
			<node id="465" bc="x"></node>
			<node id="466" bc="x"></node>
			<node id="467" bc="x"></node>
			<node id="468" bc="x"></node>
			<node id="919" bc="x"></node>
			<node id="920" bc="x"></node>
<!-- ... 16 like lines cut -->
		</fix>
		<fix>
			<node id="927" bc="xy"></node>
			<node id="1386" bc="xy"></node>
		</fix>
		<fix>
			<node id="927" bc="xy"></node>
			<node id="936" bc="xy"></node>
			<node id="945" bc="xy"></node>
			<node id="954" bc="xy"></node>
			<node id="963" bc="xy"></node>
			<node id="972" bc="xy"></node>
			<node id="981" bc="xy"></node>
			<node id="990" bc="xy"></node>
			<node id="999" bc="xy"></node>
			<node id="1008" bc="xy"></node>
			<node id="1017" bc="xy"></node>
			<node id="1026" bc="xy"></node>
			<node id="1035" bc="xy"></node>
			<node id="1044" bc="xy"></node>
			<node id="1053" bc="xy"></node>
			<node id="1062" bc="xy"></node>
			<node id="1071" bc="xy"></node>
			<node id="1080" bc="xy"></node>
			<node id="1089" bc="xy"></node>
			<node id="1098" bc="xy"></node>
<!-- ... 82 like lines cut -->
		</fix>
		<fix>
			<node id="1" bc="z"></node>
			<node id="2" bc="z"></node>
			<node id="3" bc="z"></node>
			<node id="4" bc="z"></node>
			<node id="5" bc="z"></node>
			<node id="6" bc="z"></node>
			<node id="7" bc="z"></node>
			<node id="8" bc="z"></node>
			<node id="9" bc="z"></node>
			<node id="10" bc="z"></node>
			<node id="11" bc="z"></node>
			<node id="12" bc="z"></node>
			<node id="13" bc="z"></node>
			<node id="14" bc="z"></node>
			<node id="15" bc="z"></node>
			<node id="16" bc="z"></node>
			<node id="17" bc="z"></node>
			<node id="18" bc="z"></node>
			<node id="19" bc="z"></node>
			<node id="20" bc="z"></node>
<!-- ... 1816 like lines cut -->
		</fix>
		<contact type="rigid">
			<node id="1" rb="3"></node>
			<node id="10" rb="3"></node>
			<node id="19" rb="3"></node>
			<node id="28" rb="3"></node>
			<node id="37" rb="3"></node>
			<node id="46" rb="3"></node>
			<node id="55" rb="3"></node>
			<node id="64" rb="3"></node>
			<node id="73" rb="3"></node>
			<node id="82" rb="3"></node>
			<node id="91" rb="3"></node>
			<node id="100" rb="3"></node>
			<node id="109" rb="3"></node>
			<node id="118" rb="3"></node>
			<node id="127" rb="3"></node>
			<node id="136" rb="3"></node>
			<node id="145" rb="3"></node>
			<node id="154" rb="3"></node>
			<node id="163" rb="3"></node>
			<node id="172" rb="3"></node>
<!-- ... 82 like lines cut -->
		</contact>
		<contact type="sliding2">
			<laugon>0</laugon>
			<tolerance>0.05</tolerance>
			<two_pass>1</two_pass>
			<penalty>11</penalty>
			<auto_penalty>1</auto_penalty>
			<symmetric_stiffness>0</symmetric_stiffness>
			<surface type="master">
				<quad4 id="1">   919,  1378,  1387,   928</quad4>
				<quad4 id="2">   928,  1387,  1396,   937</quad4>
				<quad4 id="3">   937,  1396,  1405,   946</quad4>
				<quad4 id="4">   946,  1405,  1414,   955</quad4>
				<quad4 id="5">   955,  1414,  1423,   964</quad4>
				<quad4 id="6">   964,  1423,  1432,   973</quad4>
				<quad4 id="7">   973,  1432,  1441,   982</quad4>
				<quad4 id="8">   982,  1441,  1450,   991</quad4>
				<quad4 id="9">   991,  1450,  1459,  1000</quad4>
				<quad4 id="10">  1000,  1459,  1468,  1009</quad4>
				<quad4 id="11">  1009,  1468,  1477,  1018</quad4>
				<quad4 id="12">  1018,  1477,  1486,  1027</quad4>
				<quad4 id="13">  1027,  1486,  1495,  1036</quad4>
				<quad4 id="14">  1036,  1495,  1504,  1045</quad4>
				<quad4 id="15">  1045,  1504,  1513,  1054</quad4>
				<quad4 id="16">  1054,  1513,  1522,  1063</quad4>
				<quad4 id="17">  1063,  1522,  1531,  1072</quad4>
				<quad4 id="18">  1072,  1531,  1540,  1081</quad4>
				<quad4 id="19">  1081,  1540,  1549,  1090</quad4>
				<quad4 id="20">  1090,  1549,  1558,  1099</quad4>
<!-- ... 30 like lines cut -->
			</surface>
			<surface type="slave">
				<quad4 id="1">     9,    18,   477,   468</quad4>
				<quad4 id="2">    18,    27,   486,   477</quad4>
				<quad4 id="3">    27,    36,   495,   486</quad4>
				<quad4 id="4">    36,    45,   504,   495</quad4>
				<quad4 id="5">    45,    54,   513,   504</quad4>
				<quad4 id="6">    54,    63,   522,   513</quad4>
				<quad4 id="7">    63,    72,   531,   522</quad4>
				<quad4 id="8">    72,    81,   540,   531</quad4>
				<quad4 id="9">    81,    90,   549,   540</quad4>
				<quad4 id="10">    90,    99,   558,   549</quad4>
				<quad4 id="11">    99,   108,   567,   558</quad4>
				<quad4 id="12">   108,   117,   576,   567</quad4>
				<quad4 id="13">   117,   126,   585,   576</quad4>
				<quad4 id="14">   126,   135,   594,   585</quad4>
				<quad4 id="15">   135,   144,   603,   594</quad4>
				<quad4 id="16">   144,   153,   612,   603</quad4>
				<quad4 id="17">   153,   162,   621,   612</quad4>
				<quad4 id="18">   162,   171,   630,   621</quad4>
				<quad4 id="19">   171,   180,   639,   630</quad4>
				<quad4 id="20">   180,   189,   648,   639</quad4>
<!-- ... 30 like lines cut -->
			</surface>
		</contact>
	</Boundary>
	<Constraints>
		<rigid_body mat="3">
			<trans_x type="fixed"></trans_x>
			<trans_y type="prescribed" lc="1">1</trans_y>
			<trans_z type="fixed"></trans_z>
			<rot_x type="fixed"></rot_x>
			<rot_y type="fixed"></rot_y>
			<rot_z type="fixed"></rot_z>
		</rigid_body>
	</Constraints>
	<LoadData>
		<loadcurve id="1">
			<loadpoint>0,0</loadpoint>
			<loadpoint>1,-0.1</loadpoint>
		</loadcurve>
	</LoadData>
	<Output>
		<plotfile type="febio"></plotfile>
	    <logfile>
			<element_data data="Ex">170</element_data>
		</logfile>
	</Output>
</febio_spec>
