<?xml version="1.0" encoding="ISO-8859-1"?>
<!--
Problem Description:
	Two 5 x 5 element blocks are compressed against each other with contact
	between them.
Main Features:
	Facet-to-facet contact
Secondary Features:
	
Materials:
	Neo-Hookean
Degrees of Freedom: 468
Results:
	Solver: Pardiso
	Steps Completed: 10
	Equilibrium Iterations: 30
	Right Hand Evaluations: 40
	Siffness Reformations: 30
	Other:
		The corner of the interface between the two blocks (node 201)
		has an x-displacement of 0.596 at time t=1
Comments:
	
-->
<febio_spec version="1.2">
	<Control>
		<title>Two Block Compression</title>
		<time_steps>10</time_steps>
		<step_size>0.1</step_size>
		<max_refs>15</max_refs>
		<max_ups>0</max_ups>
		<dtol>0.001</dtol>
		<etol>0.01</etol>
		<rtol>0</rtol>
		<lstol>0.9</lstol>
		<time_stepper>
			<dtmin>0.01</dtmin>
			<dtmax>0.1</dtmax>
			<max_retries>5</max_retries>
			<opt_iter>10</opt_iter>
		</time_stepper>
		<plot_level>PLOT_DEFAULT</plot_level>
	</Control>
	<Material>
		<material id="1" name="Material 3" type="neo-Hookean">
			<E>1</E>
			<v>0.499</v>
		</material>
		<material id="2" name="Material 4" type="neo-Hookean">
			<E>1</E>
			<v>0.499</v>
		</material>
	</Material>
	<Geometry>
		<Nodes>
			<node id="1">-2.5000000e+000,-2.5000000e+000, 0.0000000e+000</node>
			<node id="2">-2.5000000e+000,-2.5000000e+000, 5.0000000e-001</node>
			<node id="3">-2.5000000e+000,-2.5000000e+000, 1.0000000e+000</node>
			<node id="4">-2.5000000e+000,-1.5000000e+000, 0.0000000e+000</node>
			<node id="5">-2.5000000e+000,-1.5000000e+000, 5.0000000e-001</node>
			<node id="6">-2.5000000e+000,-1.5000000e+000, 1.0000000e+000</node>
			<node id="7">-2.5000000e+000,-5.0000000e-001, 0.0000000e+000</node>
			<node id="8">-2.5000000e+000,-5.0000000e-001, 5.0000000e-001</node>
			<node id="9">-2.5000000e+000,-5.0000000e-001, 1.0000000e+000</node>
			<node id="10">-2.5000000e+000, 5.0000000e-001, 0.0000000e+000</node>
			<node id="11">-2.5000000e+000, 5.0000000e-001, 5.0000000e-001</node>
			<node id="12">-2.5000000e+000, 5.0000000e-001, 1.0000000e+000</node>
			<node id="13">-2.5000000e+000, 1.5000000e+000, 0.0000000e+000</node>
			<node id="14">-2.5000000e+000, 1.5000000e+000, 5.0000000e-001</node>
			<node id="15">-2.5000000e+000, 1.5000000e+000, 1.0000000e+000</node>
			<node id="16">-2.5000000e+000, 2.5000000e+000, 0.0000000e+000</node>
			<node id="17">-2.5000000e+000, 2.5000000e+000, 5.0000000e-001</node>
			<node id="18">-2.5000000e+000, 2.5000000e+000, 1.0000000e+000</node>
			<node id="19">-1.5000000e+000,-2.5000000e+000, 0.0000000e+000</node>
			<node id="20">-1.5000000e+000,-2.5000000e+000, 5.0000000e-001</node>
<!-- ... 196 like lines cut -->
		</Nodes>
		<Elements>
			<hex8 id="1" mat="1">     1,    19,    22,     4,     2,    20,    23,     5</hex8>
			<hex8 id="2" mat="1">     2,    20,    23,     5,     3,    21,    24,     6</hex8>
			<hex8 id="3" mat="1">     4,    22,    25,     7,     5,    23,    26,     8</hex8>
			<hex8 id="4" mat="1">     5,    23,    26,     8,     6,    24,    27,     9</hex8>
			<hex8 id="5" mat="1">     7,    25,    28,    10,     8,    26,    29,    11</hex8>
			<hex8 id="6" mat="1">     8,    26,    29,    11,     9,    27,    30,    12</hex8>
			<hex8 id="7" mat="1">    10,    28,    31,    13,    11,    29,    32,    14</hex8>
			<hex8 id="8" mat="1">    11,    29,    32,    14,    12,    30,    33,    15</hex8>
			<hex8 id="9" mat="1">    13,    31,    34,    16,    14,    32,    35,    17</hex8>
			<hex8 id="10" mat="1">    14,    32,    35,    17,    15,    33,    36,    18</hex8>
			<hex8 id="11" mat="1">    19,    37,    40,    22,    20,    38,    41,    23</hex8>
			<hex8 id="12" mat="1">    20,    38,    41,    23,    21,    39,    42,    24</hex8>
			<hex8 id="13" mat="1">    22,    40,    43,    25,    23,    41,    44,    26</hex8>
			<hex8 id="14" mat="1">    23,    41,    44,    26,    24,    42,    45,    27</hex8>
			<hex8 id="15" mat="1">    25,    43,    46,    28,    26,    44,    47,    29</hex8>
			<hex8 id="16" mat="1">    26,    44,    47,    29,    27,    45,    48,    30</hex8>
			<hex8 id="17" mat="1">    28,    46,    49,    31,    29,    47,    50,    32</hex8>
			<hex8 id="18" mat="1">    29,    47,    50,    32,    30,    48,    51,    33</hex8>
			<hex8 id="19" mat="1">    31,    49,    52,    34,    32,    50,    53,    35</hex8>
			<hex8 id="20" mat="1">    32,    50,    53,    35,    33,    51,    54,    36</hex8>
<!-- ... 80 like lines cut -->
		</Elements>
	</Geometry>
	<Boundary>
		<fix>
			<node id="3" bc="xy"></node>
			<node id="6" bc="xy"></node>
			<node id="9" bc="xy"></node>
			<node id="12" bc="xy"></node>
			<node id="15" bc="xy"></node>
			<node id="18" bc="xy"></node>
			<node id="21" bc="xy"></node>
			<node id="24" bc="xy"></node>
			<node id="27" bc="xy"></node>
			<node id="30" bc="xy"></node>
			<node id="33" bc="xy"></node>
			<node id="36" bc="xy"></node>
			<node id="39" bc="xy"></node>
			<node id="42" bc="xy"></node>
			<node id="45" bc="xy"></node>
			<node id="48" bc="xy"></node>
			<node id="51" bc="xy"></node>
			<node id="54" bc="xy"></node>
			<node id="57" bc="xy"></node>
			<node id="60" bc="xy"></node>
<!-- ... 16 like lines cut -->
			<node id="109" bc="xyz"></node>
			<node id="112" bc="xyz"></node>
			<node id="115" bc="xyz"></node>
			<node id="118" bc="xyz"></node>
			<node id="121" bc="xyz"></node>
			<node id="124" bc="xyz"></node>
			<node id="127" bc="xyz"></node>
			<node id="130" bc="xyz"></node>
			<node id="133" bc="xyz"></node>
			<node id="136" bc="xyz"></node>
			<node id="139" bc="xyz"></node>
			<node id="142" bc="xyz"></node>
			<node id="145" bc="xyz"></node>
			<node id="148" bc="xyz"></node>
			<node id="151" bc="xyz"></node>
			<node id="154" bc="xyz"></node>
			<node id="157" bc="xyz"></node>
			<node id="160" bc="xyz"></node>
			<node id="163" bc="xyz"></node>
			<node id="166" bc="xyz"></node>
<!-- ... 16 like lines cut -->
		</fix>
		<prescribe>
			<node id="3" bc="z" lc="1">1</node>
			<node id="6" bc="z" lc="1">1</node>
			<node id="9" bc="z" lc="1">1</node>
			<node id="12" bc="z" lc="1">1</node>
			<node id="15" bc="z" lc="1">1</node>
			<node id="18" bc="z" lc="1">1</node>
			<node id="21" bc="z" lc="1">1</node>
			<node id="24" bc="z" lc="1">1</node>
			<node id="27" bc="z" lc="1">1</node>
			<node id="30" bc="z" lc="1">1</node>
			<node id="33" bc="z" lc="1">1</node>
			<node id="36" bc="z" lc="1">1</node>
			<node id="39" bc="z" lc="1">1</node>
			<node id="42" bc="z" lc="1">1</node>
			<node id="45" bc="z" lc="1">1</node>
			<node id="48" bc="z" lc="1">1</node>
			<node id="51" bc="z" lc="1">1</node>
			<node id="54" bc="z" lc="1">1</node>
			<node id="57" bc="z" lc="1">1</node>
			<node id="60" bc="z" lc="1">1</node>
<!-- ... 16 like lines cut -->
		</prescribe>
		<contact type="facet-to-facet sliding">
			<laugon>0</laugon>
			<tolerance>0.05</tolerance>
			<penalty>500</penalty>
			<two_pass>1</two_pass>
			<surface type="master">
				<quad4 id="1">   111,   129,   132,   114</quad4>
				<quad4 id="2">   114,   132,   135,   117</quad4>
				<quad4 id="3">   117,   135,   138,   120</quad4>
				<quad4 id="4">   120,   138,   141,   123</quad4>
				<quad4 id="5">   123,   141,   144,   126</quad4>
				<quad4 id="6">   129,   147,   150,   132</quad4>
				<quad4 id="7">   132,   150,   153,   135</quad4>
				<quad4 id="8">   135,   153,   156,   138</quad4>
				<quad4 id="9">   138,   156,   159,   141</quad4>
				<quad4 id="10">   141,   159,   162,   144</quad4>
				<quad4 id="11">   147,   165,   168,   150</quad4>
				<quad4 id="12">   150,   168,   171,   153</quad4>
				<quad4 id="13">   153,   171,   174,   156</quad4>
				<quad4 id="14">   156,   174,   177,   159</quad4>
				<quad4 id="15">   159,   177,   180,   162</quad4>
				<quad4 id="16">   165,   183,   186,   168</quad4>
				<quad4 id="17">   168,   186,   189,   171</quad4>
				<quad4 id="18">   171,   189,   192,   174</quad4>
				<quad4 id="19">   174,   192,   195,   177</quad4>
				<quad4 id="20">   177,   195,   198,   180</quad4>
<!-- ... 5 like lines cut -->
			</surface>
			<surface type="slave">
				<quad4 id="26">     4,    22,    19,     1</quad4>
				<quad4 id="27">     7,    25,    22,     4</quad4>
				<quad4 id="28">    10,    28,    25,     7</quad4>
				<quad4 id="29">    13,    31,    28,    10</quad4>
				<quad4 id="30">    16,    34,    31,    13</quad4>
				<quad4 id="31">    22,    40,    37,    19</quad4>
				<quad4 id="32">    25,    43,    40,    22</quad4>
				<quad4 id="33">    28,    46,    43,    25</quad4>
				<quad4 id="34">    31,    49,    46,    28</quad4>
				<quad4 id="35">    34,    52,    49,    31</quad4>
				<quad4 id="36">    40,    58,    55,    37</quad4>
				<quad4 id="37">    43,    61,    58,    40</quad4>
				<quad4 id="38">    46,    64,    61,    43</quad4>
				<quad4 id="39">    49,    67,    64,    46</quad4>
				<quad4 id="40">    52,    70,    67,    49</quad4>
				<quad4 id="41">    58,    76,    73,    55</quad4>
				<quad4 id="42">    61,    79,    76,    58</quad4>
				<quad4 id="43">    64,    82,    79,    61</quad4>
				<quad4 id="44">    67,    85,    82,    64</quad4>
				<quad4 id="45">    70,    88,    85,    67</quad4>
<!-- ... 5 like lines cut -->
			</surface>
		</contact>
	</Boundary>
	<LoadData>
		<loadcurve id="1">
			<loadpoint>0,0</loadpoint>
			<loadpoint>1,-0.5</loadpoint>
		</loadcurve>
	</LoadData>
	<Output>
		<plotfile type="febio"></plotfile>
	    <logfile>
			<element_data data="sx">100</element_data>
		</logfile>
	</Output>
</febio_spec>
