<?xml version="1.0" encoding="ISO-8859-1"?>
<!--
Problem Description:
	A small hollow sphere rests inside a larger rigid hollow sphere and is allowed to
	contract due to the force of gravity.
Main Features:
	Sliding Contact
Secondary Features:
	Augmented Lagrangian
Materials:
	Neo-Hookean
	Rigid Bodies
Degrees of Freedom: 445
Results:
	Steps Completed: 16
	Equilibrium Iterations: 169
	Right Hand Evaluations: 242
	Siffness Reformations: 22
	Other:
		The maximum effective strain is 0.189 at time t=1.
Comments:
	
-->
<febio_spec version="1.2">
	<Control>
		<title>Spheres with Body Force</title>
		<time_steps>10</time_steps>
		<step_size>0.1</step_size>
		<max_refs>15</max_refs>
		<max_ups>10</max_ups>
		<dtol>0.001</dtol>
		<etol>0.01</etol>
		<rtol>0</rtol>
		<lstol>0.9</lstol>
		<time_stepper>
			<dtmin>0.01</dtmin>
			<dtmax>0.1</dtmax>
			<max_retries>5</max_retries>
			<opt_iter>10</opt_iter>
		</time_stepper>
	</Control>
	<Material>
		<material id="1" name="Material 1" type="rigid body">
			<density>1</density>
			<center_of_mass>0,0,0</center_of_mass>
		</material>
		<material id="2" name="Material 2" type="neo-Hookean">
			<E>1</E>
			<v>0</v>
		</material>
	</Material>
	<Geometry>
		<Nodes>
			<node id="1">-5.6568543e-001, 0.0000000e+000,-5.6568543e-001</node>
			<node id="2">-7.2953722e-001, 0.0000000e+000,-3.2829174e-001</node>
			<node id="3">-8.0000001e-001, 0.0000000e+000, 0.0000000e+000</node>
			<node id="4">-7.2953722e-001, 0.0000000e+000, 3.2829174e-001</node>
			<node id="5">-5.6568543e-001, 0.0000000e+000, 5.6568543e-001</node>
			<node id="6">-5.3905371e-001, 2.4257416e-001,-5.3905371e-001</node>
			<node id="7">-6.7491928e-001, 3.0371367e-001,-3.0371367e-001</node>
			<node id="8">-7.2953722e-001, 3.2829174e-001, 0.0000000e+000</node>
			<node id="9">-6.7491928e-001, 3.0371367e-001, 3.0371367e-001</node>
			<node id="10">-5.3905371e-001, 2.4257416e-001, 5.3905371e-001</node>
			<node id="11">-4.6188022e-001, 4.6188022e-001,-4.6188022e-001</node>
			<node id="12">-5.3905371e-001, 5.3905371e-001,-2.4257416e-001</node>
			<node id="13">-5.6568543e-001, 5.6568543e-001, 0.0000000e+000</node>
			<node id="14">-5.3905371e-001, 5.3905371e-001, 2.4257416e-001</node>
			<node id="15">-4.6188022e-001, 4.6188022e-001, 4.6188022e-001</node>
			<node id="16">-3.2829174e-001, 0.0000000e+000,-7.2953722e-001</node>
			<node id="17">-3.2829174e-001, 0.0000000e+000, 7.2953722e-001</node>
			<node id="18">-3.0371367e-001, 3.0371367e-001,-6.7491928e-001</node>
			<node id="19">-3.0371367e-001, 3.0371367e-001, 6.7491928e-001</node>
			<node id="20">-2.4257416e-001, 5.3905371e-001,-5.3905371e-001</node>
<!-- ... 322 like lines cut -->
		</Nodes>
		<Elements>
			<hex8 id="1" mat="1">     6,     1,     2,     7,    63,    58,    59,    64</hex8>
			<hex8 id="2" mat="1">     7,     2,     3,     8,    64,    59,    60,    65</hex8>
			<hex8 id="3" mat="1">     8,     3,     4,     9,    65,    60,    61,    66</hex8>
			<hex8 id="4" mat="1">     9,     4,     5,    10,    66,    61,    62,    67</hex8>
			<hex8 id="5" mat="1">    11,     6,     7,    12,    68,    63,    64,    69</hex8>
			<hex8 id="6" mat="1">    12,     7,     8,    13,    69,    64,    65,    70</hex8>
			<hex8 id="7" mat="1">    13,     8,     9,    14,    70,    65,    66,    71</hex8>
			<hex8 id="8" mat="1">    14,     9,    10,    15,    71,    66,    67,    72</hex8>
			<hex8 id="9" mat="1">    43,    48,    49,    44,   100,   105,   106,   101</hex8>
			<hex8 id="10" mat="1">    44,    49,    50,    45,   101,   106,   107,   102</hex8>
			<hex8 id="11" mat="1">    45,    50,    51,    46,   102,   107,   108,   103</hex8>
			<hex8 id="12" mat="1">    46,    51,    52,    47,   103,   108,   109,   104</hex8>
			<hex8 id="13" mat="1">    48,    53,    54,    49,   105,   110,   111,   106</hex8>
			<hex8 id="14" mat="1">    49,    54,    55,    50,   106,   111,   112,   107</hex8>
			<hex8 id="15" mat="1">    50,    55,    56,    51,   107,   112,   113,   108</hex8>
			<hex8 id="16" mat="1">    51,    56,    57,    52,   108,   113,   114,   109</hex8>
			<hex8 id="17" mat="1">    20,    11,    12,    21,    77,    68,    69,    78</hex8>
			<hex8 id="18" mat="1">    21,    12,    13,    22,    78,    69,    70,    79</hex8>
			<hex8 id="19" mat="1">    22,    13,    14,    23,    79,    70,    71,    80</hex8>
			<hex8 id="20" mat="1">    23,    14,    15,    24,    80,    71,    72,    81</hex8>
<!-- ... 172 like lines cut -->
		</Elements>
	</Geometry>
	<Boundary>
		<fix>
			<node id="172" bc="y"></node>
			<node id="173" bc="y"></node>
			<node id="174" bc="y"></node>
			<node id="175" bc="y"></node>
			<node id="176" bc="y"></node>
			<node id="187" bc="y"></node>
			<node id="188" bc="y"></node>
			<node id="196" bc="xy"></node>
			<node id="197" bc="xy"></node>
			<node id="198" bc="x"></node>
			<node id="199" bc="x"></node>
			<node id="200" bc="x"></node>
			<node id="201" bc="x"></node>
			<node id="202" bc="x"></node>
			<node id="203" bc="x"></node>
			<node id="204" bc="x"></node>
			<node id="205" bc="y"></node>
			<node id="206" bc="y"></node>
			<node id="214" bc="y"></node>
			<node id="215" bc="y"></node>
			<node id="216" bc="y"></node>
			<node id="217" bc="y"></node>
			<node id="218" bc="y"></node>
			<node id="229" bc="y"></node>
			<node id="230" bc="y"></node>
			<node id="231" bc="y"></node>
			<node id="232" bc="y"></node>
			<node id="233" bc="y"></node>
			<node id="244" bc="y"></node>
			<node id="245" bc="y"></node>
			<node id="253" bc="xy"></node>
			<node id="254" bc="xy"></node>
			<node id="262" bc="y"></node>
			<node id="263" bc="y"></node>
			<node id="271" bc="y"></node>
			<node id="272" bc="y"></node>
			<node id="273" bc="y"></node>
			<node id="274" bc="y"></node>
			<node id="275" bc="y"></node>
			<node id="286" bc="y"></node>
			<node id="287" bc="y"></node>
			<node id="288" bc="y"></node>
			<node id="289" bc="y"></node>
			<node id="290" bc="y"></node>
			<node id="301" bc="y"></node>
			<node id="302" bc="y"></node>
			<node id="310" bc="xy"></node>
			<node id="311" bc="xy"></node>
			<node id="312" bc="x"></node>
			<node id="313" bc="x"></node>
			<node id="314" bc="x"></node>
			<node id="315" bc="x"></node>
			<node id="316" bc="x"></node>
			<node id="317" bc="x"></node>
			<node id="318" bc="x"></node>
			<node id="319" bc="y"></node>
			<node id="320" bc="y"></node>
			<node id="328" bc="y"></node>
			<node id="329" bc="y"></node>
			<node id="330" bc="y"></node>
			<node id="331" bc="y"></node>
			<node id="332" bc="y"></node>
		</fix>
		<contact type="sliding_with_gaps">
			<laugon>1</laugon>
			<tolerance>0.05</tolerance>
			<penalty>1</penalty>
			<two_pass>1</two_pass>
			<surface type="master">
				<quad4 id="1">     7,     2,     1,     6</quad4>
				<quad4 id="2">    12,     7,     6,    11</quad4>
				<quad4 id="3">    44,    49,    48,    43</quad4>
				<quad4 id="4">    49,    54,    53,    48</quad4>
				<quad4 id="5">    21,    12,    11,    20</quad4>
				<quad4 id="6">    30,    21,    20,    29</quad4>
				<quad4 id="7">    39,    30,    29,    38</quad4>
				<quad4 id="8">    54,    39,    38,    53</quad4>
				<quad4 id="9">    16,    18,     6,     1</quad4>
				<quad4 id="10">    18,    20,    11,     6</quad4>
				<quad4 id="11">    25,    27,    18,    16</quad4>
				<quad4 id="12">    27,    29,    20,    18</quad4>
				<quad4 id="13">    34,    36,    27,    25</quad4>
				<quad4 id="14">    36,    38,    29,    27</quad4>
				<quad4 id="15">    43,    48,    36,    34</quad4>
				<quad4 id="16">    48,    53,    38,    36</quad4>
			</surface>
			<surface type="slave">
				<quad4 id="17">   291,   286,   287,   292</quad4>
				<quad4 id="18">   296,   291,   292,   297</quad4>
				<quad4 id="19">   328,   333,   334,   329</quad4>
				<quad4 id="20">   333,   338,   339,   334</quad4>
				<quad4 id="21">   305,   296,   297,   306</quad4>
				<quad4 id="22">   314,   305,   306,   315</quad4>
				<quad4 id="23">   323,   314,   315,   324</quad4>
				<quad4 id="24">   338,   323,   324,   339</quad4>
				<quad4 id="25">   286,   291,   303,   301</quad4>
				<quad4 id="26">   291,   296,   305,   303</quad4>
				<quad4 id="27">   301,   303,   312,   310</quad4>
				<quad4 id="28">   303,   305,   314,   312</quad4>
				<quad4 id="29">   310,   312,   321,   319</quad4>
				<quad4 id="30">   312,   314,   323,   321</quad4>
				<quad4 id="31">   319,   321,   333,   328</quad4>
				<quad4 id="32">   321,   323,   338,   333</quad4>
			</surface>
		</contact>
	</Boundary>
	<Loads>
		<body_force>
			<z lc="1">1</z>
		</body_force>
	</Loads>
	<Constraints>
		<rigid_body mat="1">
			<trans_x type="fixed"></trans_x>
			<trans_y type="fixed"></trans_y>
			<trans_z type="fixed"></trans_z>
			<rot_x type="fixed"></rot_x>
			<rot_y type="fixed"></rot_y>
			<rot_z type="fixed"></rot_z>
		</rigid_body>
	</Constraints>
	<LoadData>
		<loadcurve id="1">
			<loadpoint>0,0</loadpoint>
			<loadpoint>1,0.2</loadpoint>
		</loadcurve>
	</LoadData>
	<Output>
		<plotfile type="febio"></plotfile>
	    <logfile>
			<element_data data="Ex">123</element_data>
		</logfile>
	</Output>
</febio_spec>
