<?xml version="1.0" encoding="ISO-8859-1"?>
<!--
Problem Description:
	A semi-spherical rigid body in contact with a block of Ogden material is displaced
	0.2 units in the z-direction (into the block) at time t=1.
Main Features:
	Facet-to-facet Contact
Secondary Features:
	Augmented Lagrangian
Materials:
	Ogden
	Rigid Bodies
Degrees of Freedom: 1453
Results:
	Steps Completed: 41
	Equilibrium Iterations: 485
	Right Hand Evaluations: 640
	Siffness Reformations: 73
	Other:
		The maximum displacement is 0.20 at time t=1.
Comments:
	This problem was changed to quarter symmetry to eliminate inconsistent convergence.
-->
<febio_spec version="1.2">
	<Module type="solid"/>
	<Control>
		<title>Indent Ogden Material</title>
		<time_steps>10</time_steps>
		<step_size>0.1</step_size>
		<max_refs>15</max_refs>
		<max_ups>10</max_ups>
		<dtol>0.001</dtol>
		<etol>0.01</etol>
		<rtol>0</rtol>
		<lstol>0.9</lstol>
		<time_stepper>
			<dtmin>0.01</dtmin>
			<dtmax>0.1</dtmax>
			<max_retries>5</max_retries>
			<opt_iter>10</opt_iter>
		</time_stepper>
	</Control>
	<Material>
		<material id="1" name="Material1" type="Ogden">
			<density>1</density>
			<k>100</k>
			<c1>0.0329</c1>
			<c2>0</c2>
			<c3>0</c3>
			<c4>0</c4>
			<c5>0</c5>
			<c6>0</c6>
			<m1>6.82</m1>
			<m2>1</m2>
			<m3>1</m3>
			<m4>1</m4>
			<m5>1</m5>
			<m6>1</m6>
		</material>
		<material id="2" name="Material2" type="rigid body">
			<density>1</density>
			<center_of_mass>0,0,0</center_of_mass>
		</material>
	</Material>
	<Geometry>
		<Nodes>
			<node id="1"> -2.7755576e-17, -2.7755576e-17,  0.0000000e+00</node>
			<node id="2"> -2.7755576e-17, -2.7755576e-17,  1.0000000e-01</node>
			<node id="3"> -2.7755576e-17, -2.7755576e-17,  2.0000000e-01</node>
			<node id="4"> -2.7755576e-17, -2.7755576e-17,  3.0000000e-01</node>
			<node id="5"> -2.7755576e-17, -2.7755576e-17,  4.0000000e-01</node>
			<node id="6"> -2.7755576e-17,  1.0000000e-01,  0.0000000e+00</node>
			<node id="7"> -2.7755576e-17,  1.0000000e-01,  1.0000000e-01</node>
			<node id="8"> -2.7755576e-17,  1.0000000e-01,  2.0000000e-01</node>
			<node id="9"> -2.7755576e-17,  1.0000000e-01,  3.0000000e-01</node>
			<node id="10"> -2.7755576e-17,  1.0000000e-01,  4.0000000e-01</node>
			<node id="11"> -2.7755576e-17,  2.0000000e-01,  0.0000000e+00</node>
			<node id="12"> -2.7755576e-17,  2.0000000e-01,  1.0000000e-01</node>
			<node id="13"> -2.7755576e-17,  2.0000000e-01,  2.0000000e-01</node>
			<node id="14"> -2.7755576e-17,  2.0000000e-01,  3.0000000e-01</node>
			<node id="15"> -2.7755576e-17,  2.0000000e-01,  4.0000000e-01</node>
			<node id="16"> -2.7755576e-17,  3.0000000e-01,  0.0000000e+00</node>
			<node id="17"> -2.7755576e-17,  3.0000000e-01,  1.0000000e-01</node>
			<node id="18"> -2.7755576e-17,  3.0000000e-01,  2.0000000e-01</node>
			<node id="19"> -2.7755576e-17,  3.0000000e-01,  3.0000000e-01</node>
			<node id="20"> -2.7755576e-17,  3.0000000e-01,  4.0000000e-01</node>
<!-- ... 446 like lines cut -->
		</Nodes>
		<Elements>
			<hex8 id="1" mat="1">     1,    31,    36,     6,     2,    32,    37,     7</hex8>
			<hex8 id="2" mat="1">     2,    32,    37,     7,     3,    33,    38,     8</hex8>
			<hex8 id="3" mat="1">     3,    33,    38,     8,     4,    34,    39,     9</hex8>
			<hex8 id="4" mat="1">     4,    34,    39,     9,     5,    35,    40,    10</hex8>
			<hex8 id="5" mat="1">     6,    36,    41,    11,     7,    37,    42,    12</hex8>
			<hex8 id="6" mat="1">     7,    37,    42,    12,     8,    38,    43,    13</hex8>
			<hex8 id="7" mat="1">     8,    38,    43,    13,     9,    39,    44,    14</hex8>
			<hex8 id="8" mat="1">     9,    39,    44,    14,    10,    40,    45,    15</hex8>
			<hex8 id="9" mat="1">    11,    41,    46,    16,    12,    42,    47,    17</hex8>
			<hex8 id="10" mat="1">    12,    42,    47,    17,    13,    43,    48,    18</hex8>
			<hex8 id="11" mat="1">    13,    43,    48,    18,    14,    44,    49,    19</hex8>
			<hex8 id="12" mat="1">    14,    44,    49,    19,    15,    45,    50,    20</hex8>
			<hex8 id="13" mat="1">    16,    46,    51,    21,    17,    47,    52,    22</hex8>
			<hex8 id="14" mat="1">    17,    47,    52,    22,    18,    48,    53,    23</hex8>
			<hex8 id="15" mat="1">    18,    48,    53,    23,    19,    49,    54,    24</hex8>
			<hex8 id="16" mat="1">    19,    49,    54,    24,    20,    50,    55,    25</hex8>
			<hex8 id="17" mat="1">    21,    51,    56,    26,    22,    52,    57,    27</hex8>
			<hex8 id="18" mat="1">    22,    52,    57,    27,    23,    53,    58,    28</hex8>
			<hex8 id="19" mat="1">    23,    53,    58,    28,    24,    54,    59,    29</hex8>
			<hex8 id="20" mat="1">    24,    54,    59,    29,    25,    55,    60,    30</hex8>
<!-- ... 269 like lines cut -->
		</Elements>
	</Geometry>
	<Boundary>
		<fix>
			<node id="1" bc="y"/>
			<node id="2" bc="y"/>
			<node id="3" bc="y"/>
			<node id="4" bc="y"/>
			<node id="5" bc="y"/>
			<node id="31" bc="y"/>
			<node id="32" bc="y"/>
			<node id="33" bc="y"/>
			<node id="34" bc="y"/>
			<node id="35" bc="y"/>
			<node id="61" bc="y"/>
			<node id="62" bc="y"/>
			<node id="63" bc="y"/>
			<node id="64" bc="y"/>
			<node id="65" bc="y"/>
			<node id="91" bc="y"/>
			<node id="92" bc="y"/>
			<node id="93" bc="y"/>
			<node id="94" bc="y"/>
			<node id="95" bc="y"/>
<!-- ... 10 like lines cut -->
		</fix>
		<fix>
			<node id="1" bc="x"/>
			<node id="2" bc="x"/>
			<node id="3" bc="x"/>
			<node id="4" bc="x"/>
			<node id="5" bc="x"/>
			<node id="6" bc="x"/>
			<node id="7" bc="x"/>
			<node id="8" bc="x"/>
			<node id="9" bc="x"/>
			<node id="10" bc="x"/>
			<node id="11" bc="x"/>
			<node id="12" bc="x"/>
			<node id="13" bc="x"/>
			<node id="14" bc="x"/>
			<node id="15" bc="x"/>
			<node id="16" bc="x"/>
			<node id="17" bc="x"/>
			<node id="18" bc="x"/>
			<node id="19" bc="x"/>
			<node id="20" bc="x"/>
<!-- ... 10 like lines cut -->
		</fix>
		<fix>
			<node id="5" bc="xyz"/>
			<node id="10" bc="xyz"/>
			<node id="15" bc="xyz"/>
			<node id="20" bc="xyz"/>
			<node id="25" bc="xyz"/>
			<node id="30" bc="xyz"/>
			<node id="35" bc="xyz"/>
			<node id="40" bc="xyz"/>
			<node id="45" bc="xyz"/>
			<node id="50" bc="xyz"/>
			<node id="55" bc="xyz"/>
			<node id="60" bc="xyz"/>
			<node id="65" bc="xyz"/>
			<node id="70" bc="xyz"/>
			<node id="75" bc="xyz"/>
			<node id="80" bc="xyz"/>
			<node id="85" bc="xyz"/>
			<node id="90" bc="xyz"/>
			<node id="95" bc="xyz"/>
			<node id="100" bc="xyz"/>
<!-- ... 16 like lines cut -->
		</fix>
		<contact type="facet-to-facet sliding">
			<laugon>1</laugon>
			<tolerance>0.5</tolerance>
			<two_pass>0</two_pass>
			<penalty>10</penalty>
			<surface type="master">
				<quad4 id="1">   189,   226,   317,   232</quad4>
				<quad4 id="2">   226,   225,   318,   317</quad4>
				<quad4 id="3">   225,   191,   239,   318</quad4>
				<quad4 id="4">   232,   317,   319,   233</quad4>
				<quad4 id="5">   317,   318,   320,   319</quad4>
				<quad4 id="6">   318,   239,   240,   320</quad4>
				<quad4 id="7">   233,   319,   242,   193</quad4>
				<quad4 id="8">   319,   320,   241,   242</quad4>
				<quad4 id="9">   320,   240,   195,   241</quad4>
				<quad4 id="10">   191,   249,   351,   239</quad4>
				<quad4 id="11">   249,   248,   352,   351</quad4>
				<quad4 id="12">   248,   190,   255,   352</quad4>
				<quad4 id="13">   239,   351,   353,   240</quad4>
				<quad4 id="14">   351,   352,   354,   353</quad4>
				<quad4 id="15">   352,   255,   256,   354</quad4>
				<quad4 id="16">   240,   353,   258,   195</quad4>
				<quad4 id="17">   353,   354,   257,   258</quad4>
				<quad4 id="18">   354,   256,   194,   257</quad4>
				<quad4 id="19">   192,   270,   395,   271</quad4>
				<quad4 id="20">   270,   269,   396,   395</quad4>
<!-- ... 7 like lines cut -->
			</surface>
			<surface type="slave">
				<quad4 id="1">     1,     6,    36,    31</quad4>
				<quad4 id="2">     6,    11,    41,    36</quad4>
				<quad4 id="3">    11,    16,    46,    41</quad4>
				<quad4 id="4">    16,    21,    51,    46</quad4>
				<quad4 id="5">    21,    26,    56,    51</quad4>
				<quad4 id="6">    31,    36,    66,    61</quad4>
				<quad4 id="7">    36,    41,    71,    66</quad4>
				<quad4 id="8">    41,    46,    76,    71</quad4>
				<quad4 id="9">    46,    51,    81,    76</quad4>
				<quad4 id="10">    51,    56,    86,    81</quad4>
				<quad4 id="11">    61,    66,    96,    91</quad4>
				<quad4 id="12">    66,    71,   101,    96</quad4>
				<quad4 id="13">    71,    76,   106,   101</quad4>
				<quad4 id="14">    76,    81,   111,   106</quad4>
				<quad4 id="15">    81,    86,   116,   111</quad4>
				<quad4 id="16">    91,    96,   126,   121</quad4>
				<quad4 id="17">    96,   101,   131,   126</quad4>
				<quad4 id="18">   101,   106,   136,   131</quad4>
				<quad4 id="19">   106,   111,   141,   136</quad4>
				<quad4 id="20">   111,   116,   146,   141</quad4>
<!-- ... 5 like lines cut -->
			</surface>
		</contact>
	</Boundary>
	<Constraints>
		<rigid_body mat="2">
			<trans_x type="fixed"></trans_x>
			<trans_y type="fixed"></trans_y>
			<rot_x type="fixed"></rot_x>
			<rot_y type="fixed"></rot_y>
			<rot_z type="fixed"></rot_z>
		</rigid_body>
		<rigid_body mat="2">
			<trans_z type="prescribed" lc="1">1</trans_z>
		</rigid_body>
	</Constraints>
	<LoadData>
		<loadcurve id="1" type="smooth">
			<loadpoint>0,0</loadpoint>
			<loadpoint>1,0.2</loadpoint>
		</loadcurve>
	</LoadData>
	<Output>
		<plotfile type="febio"></plotfile>
	    <logfile>
			<element_data data="Ex">1</element_data>
		</logfile>
	</Output>
</febio_spec>
