<?xml version="1.0" encoding="ISO-8859-1"?>
<!--
Problem Description:
	A semi-spherical body in contact with a block, both consisting of Ogden unconstrained material.
	The semi-spherical body is displaced 0.2 units in the z-direction (into the block) at time t=1.
Main Features:
	Ogden unconstrained
Secondary Features:
	Sliding2 Contact applied to elastic materials
	Augmented Lagrangian
Materials:
	Ogden unconstrained
	Rigid Bodies
Degrees of Freedom: 1453
Results:
	Steps Completed: 10
	Equilibrium Iterations: 48
	Right Hand Evaluations: 62
	Siffness Reformations: 48
	Other:
		The maximum displacement is 0.20 at time t=1.
Comments:
	
-->
<febio_spec version="1.2">
	<Material>
		<material id="1" name="Material 1" type="Ogden unconstrained">
			<density>1</density>
			<cp>1</cp>
			<c1>0.0329</c1>
			<c2>0</c2>
			<c3>0</c3>
			<c4>0</c4>
			<c5>0</c5>
			<c6>0</c6>
			<m1>6.82</m1>
			<m2>1</m2>
			<m3>1</m3>
			<m4>1</m4>
			<m5>1</m5>
			<m6>1</m6>
		</material>
		<material id="2" name="Material 2" type="rigid body">
			<density>1</density>
			<center_of_mass>0,0,0</center_of_mass>
		</material>
	</Material>
	<Geometry>
		<Nodes>
			<node id="1"> -5.0000000e-01, -5.0000000e-01,  0.0000000e+00</node>
			<node id="2"> -5.0000000e-01, -5.0000000e-01,  1.0000000e-01</node>
			<node id="3"> -5.0000000e-01, -5.0000000e-01,  2.0000000e-01</node>
			<node id="4"> -5.0000000e-01, -5.0000000e-01,  3.0000000e-01</node>
			<node id="5"> -5.0000000e-01, -5.0000000e-01,  4.0000000e-01</node>
			<node id="6"> -5.0000000e-01, -4.0000000e-01,  0.0000000e+00</node>
			<node id="7"> -5.0000000e-01, -4.0000000e-01,  1.0000000e-01</node>
			<node id="8"> -5.0000000e-01, -4.0000000e-01,  2.0000000e-01</node>
			<node id="9"> -5.0000000e-01, -4.0000000e-01,  3.0000000e-01</node>
			<node id="10"> -5.0000000e-01, -4.0000000e-01,  4.0000000e-01</node>
			<node id="11"> -5.0000000e-01, -3.0000000e-01,  0.0000000e+00</node>
			<node id="12"> -5.0000000e-01, -3.0000000e-01,  1.0000000e-01</node>
			<node id="13"> -5.0000000e-01, -3.0000000e-01,  2.0000000e-01</node>
			<node id="14"> -5.0000000e-01, -3.0000000e-01,  3.0000000e-01</node>
			<node id="15"> -5.0000000e-01, -3.0000000e-01,  4.0000000e-01</node>
			<node id="16"> -5.0000000e-01, -2.0000000e-01,  0.0000000e+00</node>
			<node id="17"> -5.0000000e-01, -2.0000000e-01,  1.0000000e-01</node>
			<node id="18"> -5.0000000e-01, -2.0000000e-01,  2.0000000e-01</node>
			<node id="19"> -5.0000000e-01, -2.0000000e-01,  3.0000000e-01</node>
			<node id="20"> -5.0000000e-01, -2.0000000e-01,  4.0000000e-01</node>
<!-- ... 1507 like lines cut -->
		</Nodes>
		<Elements>
			<hex8 id="1" mat="1">     1,    56,    61,     6,     2,    57,    62,     7</hex8>
			<hex8 id="2" mat="1">     2,    57,    62,     7,     3,    58,    63,     8</hex8>
			<hex8 id="3" mat="1">     3,    58,    63,     8,     4,    59,    64,     9</hex8>
			<hex8 id="4" mat="1">     4,    59,    64,     9,     5,    60,    65,    10</hex8>
			<hex8 id="5" mat="1">     6,    61,    66,    11,     7,    62,    67,    12</hex8>
			<hex8 id="6" mat="1">     7,    62,    67,    12,     8,    63,    68,    13</hex8>
			<hex8 id="7" mat="1">     8,    63,    68,    13,     9,    64,    69,    14</hex8>
			<hex8 id="8" mat="1">     9,    64,    69,    14,    10,    65,    70,    15</hex8>
			<hex8 id="9" mat="1">    11,    66,    71,    16,    12,    67,    72,    17</hex8>
			<hex8 id="10" mat="1">    12,    67,    72,    17,    13,    68,    73,    18</hex8>
			<hex8 id="11" mat="1">    13,    68,    73,    18,    14,    69,    74,    19</hex8>
			<hex8 id="12" mat="1">    14,    69,    74,    19,    15,    70,    75,    20</hex8>
			<hex8 id="13" mat="1">    16,    71,    76,    21,    17,    72,    77,    22</hex8>
			<hex8 id="14" mat="1">    17,    72,    77,    22,    18,    73,    78,    23</hex8>
			<hex8 id="15" mat="1">    18,    73,    78,    23,    19,    74,    79,    24</hex8>
			<hex8 id="16" mat="1">    19,    74,    79,    24,    20,    75,    80,    25</hex8>
			<hex8 id="17" mat="1">    21,    76,    81,    26,    22,    77,    82,    27</hex8>
			<hex8 id="18" mat="1">    22,    77,    82,    27,    23,    78,    83,    28</hex8>
			<hex8 id="19" mat="1">    23,    78,    83,    28,    24,    79,    84,    29</hex8>
			<hex8 id="20" mat="1">    24,    79,    84,    29,    25,    80,    85,    30</hex8>
<!-- ... 1136 like lines cut -->
		</Elements>
	</Geometry>
	<Boundary>
		<fix>
			<node id="5" bc="xyz"/>
			<node id="10" bc="xyz"/>
			<node id="15" bc="xyz"/>
			<node id="20" bc="xyz"/>
			<node id="25" bc="xyz"/>
			<node id="30" bc="xyz"/>
			<node id="35" bc="xyz"/>
			<node id="40" bc="xyz"/>
			<node id="45" bc="xyz"/>
			<node id="50" bc="xyz"/>
			<node id="55" bc="xyz"/>
			<node id="60" bc="xyz"/>
			<node id="65" bc="xyz"/>
			<node id="70" bc="xyz"/>
			<node id="75" bc="xyz"/>
			<node id="80" bc="xyz"/>
			<node id="85" bc="xyz"/>
			<node id="90" bc="xyz"/>
			<node id="95" bc="xyz"/>
			<node id="100" bc="xyz"/>
<!-- ... 101 like lines cut -->
		</fix>
		<contact type="rigid">
			<node id="606" rb="2"></node>
			<node id="607" rb="2"></node>
			<node id="608" rb="2"></node>
			<node id="609" rb="2"></node>
			<node id="610" rb="2"></node>
			<node id="611" rb="2"></node>
			<node id="612" rb="2"></node>
			<node id="613" rb="2"></node>
			<node id="614" rb="2"></node>
			<node id="615" rb="2"></node>
			<node id="616" rb="2"></node>
			<node id="617" rb="2"></node>
			<node id="618" rb="2"></node>
			<node id="619" rb="2"></node>
			<node id="620" rb="2"></node>
			<node id="621" rb="2"></node>
			<node id="622" rb="2"></node>
			<node id="623" rb="2"></node>
			<node id="624" rb="2"></node>
			<node id="625" rb="2"></node>
<!-- ... 173 like lines cut -->
		</contact>
		<contact type="sliding2">
			<laugon>1</laugon>
			<tolerance>0.5</tolerance>
			<two_pass>0</two_pass>
			<auto_penalty>1</auto_penalty>
			<penalty>1</penalty>
			<symmetric_stiffness>0</symmetric_stiffness>
			<surface type="master">
				<quad4 id="1">  1414,  1407,  1431,  1438</quad4>
				<quad4 id="2">  1407,  1408,  1432,  1431</quad4>
				<quad4 id="3">  1408,  1409,  1433,  1432</quad4>
				<quad4 id="4">  1409,  1410,  1434,  1433</quad4>
				<quad4 id="5">  1410,  1411,  1435,  1434</quad4>
				<quad4 id="6">  1411,  1412,  1436,  1435</quad4>
				<quad4 id="7">  1413,  1415,  1439,  1437</quad4>
				<quad4 id="8">  1412,  1413,  1437,  1436</quad4>
				<quad4 id="9">  1416,  1414,  1438,  1440</quad4>
				<quad4 id="10">  1415,  1417,  1441,  1439</quad4>
				<quad4 id="11">  1418,  1416,  1440,  1442</quad4>
				<quad4 id="12">  1417,  1419,  1443,  1441</quad4>
				<quad4 id="13">  1420,  1418,  1442,  1444</quad4>
				<quad4 id="14">  1419,  1421,  1445,  1443</quad4>
				<quad4 id="15">  1422,  1420,  1444,  1446</quad4>
				<quad4 id="16">  1421,  1423,  1447,  1445</quad4>
				<quad4 id="17">  1424,  1422,  1446,  1448</quad4>
				<quad4 id="18">  1425,  1424,  1448,  1449</quad4>
				<quad4 id="19">  1426,  1425,  1449,  1450</quad4>
				<quad4 id="20">  1427,  1426,  1450,  1451</quad4>
<!-- ... 88 like lines cut -->
			</surface>
			<surface type="slave">
				<quad4 id="1">     1,     6,    61,    56</quad4>
				<quad4 id="2">     6,    11,    66,    61</quad4>
				<quad4 id="3">    11,    16,    71,    66</quad4>
				<quad4 id="4">    16,    21,    76,    71</quad4>
				<quad4 id="5">    21,    26,    81,    76</quad4>
				<quad4 id="6">    26,    31,    86,    81</quad4>
				<quad4 id="7">    31,    36,    91,    86</quad4>
				<quad4 id="8">    36,    41,    96,    91</quad4>
				<quad4 id="9">    41,    46,   101,    96</quad4>
				<quad4 id="10">    46,    51,   106,   101</quad4>
				<quad4 id="11">    56,    61,   116,   111</quad4>
				<quad4 id="12">    61,    66,   121,   116</quad4>
				<quad4 id="13">    66,    71,   126,   121</quad4>
				<quad4 id="14">    71,    76,   131,   126</quad4>
				<quad4 id="15">    76,    81,   136,   131</quad4>
				<quad4 id="16">    81,    86,   141,   136</quad4>
				<quad4 id="17">    86,    91,   146,   141</quad4>
				<quad4 id="18">    91,    96,   151,   146</quad4>
				<quad4 id="19">    96,   101,   156,   151</quad4>
				<quad4 id="20">   101,   106,   161,   156</quad4>
<!-- ... 80 like lines cut -->
			</surface>
		</contact>
	</Boundary>
	<LoadData>
		<loadcurve id="1" type="linear" extend="constant">
			<loadpoint>0,0</loadpoint>
			<loadpoint>1,0.2</loadpoint>
		</loadcurve>
	</LoadData>
	<Step>
		<Control>
			<title>Indent Ogden Unconstrained</title>
			<time_steps>10</time_steps>
			<step_size>0.1</step_size>
			<max_refs>25</max_refs>
			<max_ups>0</max_ups>
			<dtol>0.001</dtol>
			<etol>0.01</etol>
			<rtol>0</rtol>
			<lstol>0.9</lstol>
			<time_stepper>
				<dtmin>0.01</dtmin>
				<dtmax>0.1</dtmax>
				<max_retries>5</max_retries>
				<opt_iter>10</opt_iter>
			</time_stepper>
		</Control>
		<Constraints>
			<rigid_body mat="2">
				<trans_x type="fixed"></trans_x>
				<trans_y type="fixed"></trans_y>
				<rot_x type="fixed"></rot_x>
				<rot_y type="fixed"></rot_y>
				<rot_z type="fixed"></rot_z>
			</rigid_body>
			<rigid_body mat="2">
				<trans_z type="prescribed" lc="1">1</trans_z>
			</rigid_body>
		</Constraints>
	</Step>
	<Output>
		<plotfile type="febio"></plotfile>
	    <logfile>
			<element_data data="Ey">13</element_data>
		</logfile>
	</Output>
</febio_spec>
