<?xml version="1.0" encoding="ISO-8859-1"?>
<!-- 
Problem Description:
Solid remodeling of a one-dimensional bar with square cross-section, fixed on one end (z=0) and 
subjected to a compressive normal traction on the other end (z=10) and a uniform shear traction on 
its lateral boundaries.  The solid material of the bar behaves as a neo-Hookean material with Young's 
modulus varying as a power law of the apparent solid density (a Carter-Hayes material).  The solid remodels
 by adjusting the apparent solid density until the specific strain energy (strain energy per mass) becomes 
 uniform.  The remodeling process is described by a chemical reaction,

[cells] + [nutrients] -> [cells] + [solid matrix]

where [cells] and [nutrients] are not modeled explicitly. The [solid matrix] is modeled with a solid-bound 
molecule called "solid".  The initial value of the solid apparent density is set to 1.0.  No upper bound is 
placed on this solid apparent density.  The reaction rate is dependent on the difference between the current 
and user-specified homeostatic specific strain energy according to the Huiskes model, which may produce
positive or negative rates of solid matrix deposition (growth or degradation).  Since chemical reactions 
are currently implemented only in multiphasic mixtures, the analysis necessarily includes a fluid phase in the 
porous solid, though the fluid pressure is prescribed to be zero on the boundaries.  The remodeling process 
achieves a steady-state response.
 
Main Features:
	Solid remodeling using multiphasic material with chemical reactions.
Secondary Features:
	Huiskes reaction rate
Materials:
	Multiphasic
	Carter-Hayes
	Constant Isotropic Permeability
	Constant Osmotic Coefficient
	Constant Isotropic Diffusivity
	Constant Solubility
	Mass-Action-Forward
	Huiskes Reaction Rate
Degrees of Freedom: 804
Results:
	Steps Completed: 200
	Equilibrium Iterations: 736
	Right Hand Evaluations: 2070
	Siffness Reformations: 736
	Other:
		The solid referential apparent density increases to 1.26 at the fixed end (z=0) and reduces to 0.796 at the loaded end (z=10), at time t=200.
 
Comments:
	
-->
<febio_spec version="1.2">
	<Module type="multiphasic"/>
	<Control>
		<time_steps>200</time_steps>
		<step_size>1</step_size>
		<max_refs>15</max_refs>
		<max_ups>0</max_ups>
		<dtol>0.01</dtol>
		<etol>0.01</etol>
		<rtol>0</rtol>
		<ptol>0.01</ptol>
		<ctol>0.01</ctol>
		<lstol>0.9</lstol>
		<analysis type="steady-state"/>
		<time_stepper>
			<dtmin>0.01</dtmin>
			<dtmax>1</dtmax>
			<max_retries>5</max_retries>
			<opt_iter>10</opt_iter>
		</time_stepper>
		<symmetric_biphasic>0</symmetric_biphasic>
	</Control>
	<Globals>
		<Constants>
			<T>293</T>
			<R>8.314e-06</R>
			<Fc>9.65e-05</Fc>
		</Constants>
		<Solutes>
			<solute id="1" name="solute">
				<charge_number>0</charge_number>
			</solute>
		</Solutes>
		<SolidBoundMolecules>
			<solid_bound id="1" name="solid">
				<charge_number>0</charge_number>
				<density>1000</density>
				<molar_mass>1</molar_mass>
			</solid_bound>
		</SolidBoundMolecules>
	</Globals>
	<Material>
		<material id="1" name="solid matrix" type="multiphasic">
			<phi0>0</phi0>
			<solid_bound sbm="1">
				<rho0>1</rho0>
			</solid_bound>
			<fixed_charge_density>0</fixed_charge_density>
			<solid type="Carter-Hayes">
			  <sbm>1</sbm>
			  <E0>10000</E0>
			  <rho0>1</rho0>
			  
			  
			  
			  
			  
			  
			  
			  
			  
			  <gamma>2.0</gamma>
			  <v>0</v>
			</solid>
			<permeability type="perm-const-iso">
				<perm>1</perm>
			</permeability>
			<osmotic_coefficient type="osm-coef-const">
				<osmcoef>1</osmcoef>
			</osmotic_coefficient>
			<reaction name="solid remodeling" type="mass-action-forward">
			  <Vbar>0</Vbar>
			  <vP sbm="1">1</vP>
			  <forward_rate type="Huiskes reaction rate">
			    <B>1</B>
			    <psi0>0.01</psi0>
			  </forward_rate>
			</reaction>
		</material>
	</Material>
	<Geometry>
		<Nodes>
			<node id="1"> -5.0000000e-01, -5.0000000e-01,  0.0000000e+00</node>
			<node id="2"> -5.0000000e-01, -5.0000000e-01,  1.0000000e-01</node>
			<node id="3"> -5.0000000e-01, -5.0000000e-01,  2.0000000e-01</node>
			<node id="4"> -5.0000000e-01, -5.0000000e-01,  3.0000000e-01</node>
			<node id="5"> -5.0000000e-01, -5.0000000e-01,  4.0000000e-01</node>
			<node id="6"> -5.0000000e-01, -5.0000000e-01,  5.0000000e-01</node>
			<node id="7"> -5.0000000e-01, -5.0000000e-01,  6.0000000e-01</node>
			<node id="8"> -5.0000000e-01, -5.0000000e-01,  7.0000000e-01</node>
			<node id="9"> -5.0000000e-01, -5.0000000e-01,  8.0000000e-01</node>
			<node id="10"> -5.0000000e-01, -5.0000000e-01,  9.0000000e-01</node>
			<node id="11"> -5.0000000e-01, -5.0000000e-01,  1.0000000e+00</node>
			<node id="12"> -5.0000000e-01, -5.0000000e-01,  1.1000000e+00</node>
			<node id="13"> -5.0000000e-01, -5.0000000e-01,  1.2000000e+00</node>
			<node id="14"> -5.0000000e-01, -5.0000000e-01,  1.3000000e+00</node>
			<node id="15"> -5.0000000e-01, -5.0000000e-01,  1.4000000e+00</node>
			<node id="16"> -5.0000000e-01, -5.0000000e-01,  1.5000000e+00</node>
			<node id="17"> -5.0000000e-01, -5.0000000e-01,  1.6000000e+00</node>
			<node id="18"> -5.0000000e-01, -5.0000000e-01,  1.7000000e+00</node>
			<node id="19"> -5.0000000e-01, -5.0000000e-01,  1.8000000e+00</node>
			<node id="20"> -5.0000000e-01, -5.0000000e-01,  1.9000000e+00</node>
<!-- ... 384 like lines cut -->
		</Nodes>
		<Elements>
			<hex8 id="1" mat="1">     1,   203,   304,   102,     2,   204,   305,   103</hex8>
			<hex8 id="2" mat="1">     2,   204,   305,   103,     3,   205,   306,   104</hex8>
			<hex8 id="3" mat="1">     3,   205,   306,   104,     4,   206,   307,   105</hex8>
			<hex8 id="4" mat="1">     4,   206,   307,   105,     5,   207,   308,   106</hex8>
			<hex8 id="5" mat="1">     5,   207,   308,   106,     6,   208,   309,   107</hex8>
			<hex8 id="6" mat="1">     6,   208,   309,   107,     7,   209,   310,   108</hex8>
			<hex8 id="7" mat="1">     7,   209,   310,   108,     8,   210,   311,   109</hex8>
			<hex8 id="8" mat="1">     8,   210,   311,   109,     9,   211,   312,   110</hex8>
			<hex8 id="9" mat="1">     9,   211,   312,   110,    10,   212,   313,   111</hex8>
			<hex8 id="10" mat="1">    10,   212,   313,   111,    11,   213,   314,   112</hex8>
			<hex8 id="11" mat="1">    11,   213,   314,   112,    12,   214,   315,   113</hex8>
			<hex8 id="12" mat="1">    12,   214,   315,   113,    13,   215,   316,   114</hex8>
			<hex8 id="13" mat="1">    13,   215,   316,   114,    14,   216,   317,   115</hex8>
			<hex8 id="14" mat="1">    14,   216,   317,   115,    15,   217,   318,   116</hex8>
			<hex8 id="15" mat="1">    15,   217,   318,   116,    16,   218,   319,   117</hex8>
			<hex8 id="16" mat="1">    16,   218,   319,   117,    17,   219,   320,   118</hex8>
			<hex8 id="17" mat="1">    17,   219,   320,   118,    18,   220,   321,   119</hex8>
			<hex8 id="18" mat="1">    18,   220,   321,   119,    19,   221,   322,   120</hex8>
			<hex8 id="19" mat="1">    19,   221,   322,   120,    20,   222,   323,   121</hex8>
			<hex8 id="20" mat="1">    20,   222,   323,   121,    21,   223,   324,   122</hex8>
<!-- ... 80 like lines cut -->
		</Elements>
	</Geometry>
	<Boundary>
		<fix>
			<node id="1" bc="x"/>
			<node id="2" bc="x"/>
			<node id="3" bc="x"/>
			<node id="4" bc="x"/>
			<node id="5" bc="x"/>
			<node id="6" bc="x"/>
			<node id="7" bc="x"/>
			<node id="8" bc="x"/>
			<node id="9" bc="x"/>
			<node id="10" bc="x"/>
			<node id="11" bc="x"/>
			<node id="12" bc="x"/>
			<node id="13" bc="x"/>
			<node id="14" bc="x"/>
			<node id="15" bc="x"/>
			<node id="16" bc="x"/>
			<node id="17" bc="x"/>
			<node id="18" bc="x"/>
			<node id="19" bc="x"/>
			<node id="20" bc="x"/>
<!-- ... 182 like lines cut -->
		</fix>
		<fix>
			<node id="1" bc="y"/>
			<node id="2" bc="y"/>
			<node id="3" bc="y"/>
			<node id="4" bc="y"/>
			<node id="5" bc="y"/>
			<node id="6" bc="y"/>
			<node id="7" bc="y"/>
			<node id="8" bc="y"/>
			<node id="9" bc="y"/>
			<node id="10" bc="y"/>
			<node id="11" bc="y"/>
			<node id="12" bc="y"/>
			<node id="13" bc="y"/>
			<node id="14" bc="y"/>
			<node id="15" bc="y"/>
			<node id="16" bc="y"/>
			<node id="17" bc="y"/>
			<node id="18" bc="y"/>
			<node id="19" bc="y"/>
			<node id="20" bc="y"/>
<!-- ... 182 like lines cut -->
		</fix>
		<fix>
			<node id="1" bc="z"/>
			<node id="102" bc="z"/>
			<node id="203" bc="z"/>
			<node id="304" bc="z"/>
		</fix>
		<fix>
			<node id="1" bc="p"/>
			<node id="2" bc="p"/>
			<node id="3" bc="p"/>
			<node id="4" bc="p"/>
			<node id="5" bc="p"/>
			<node id="6" bc="p"/>
			<node id="7" bc="p"/>
			<node id="8" bc="p"/>
			<node id="9" bc="p"/>
			<node id="10" bc="p"/>
			<node id="11" bc="p"/>
			<node id="12" bc="p"/>
			<node id="13" bc="p"/>
			<node id="14" bc="p"/>
			<node id="15" bc="p"/>
			<node id="16" bc="p"/>
			<node id="17" bc="p"/>
			<node id="18" bc="p"/>
			<node id="19" bc="p"/>
			<node id="20" bc="p"/>
<!-- ... 384 like lines cut -->
		</fix>
	</Boundary>
	<Loads>
		<traction>
			<quad4 id="1" lc="1" tx="0" ty="0" tz="-1">   101,   303,   404,   202</quad4>
		</traction>
		<traction>
			<quad4 id="1" lc="2" tx="0" ty="0" tz="-0.25">     1,   203,   204,     2</quad4>
			<quad4 id="2" lc="2" tx="0" ty="0" tz="-0.25">     2,   204,   205,     3</quad4>
			<quad4 id="3" lc="2" tx="0" ty="0" tz="-0.25">     3,   205,   206,     4</quad4>
			<quad4 id="4" lc="2" tx="0" ty="0" tz="-0.25">     4,   206,   207,     5</quad4>
			<quad4 id="5" lc="2" tx="0" ty="0" tz="-0.25">     5,   207,   208,     6</quad4>
			<quad4 id="6" lc="2" tx="0" ty="0" tz="-0.25">     6,   208,   209,     7</quad4>
			<quad4 id="7" lc="2" tx="0" ty="0" tz="-0.25">     7,   209,   210,     8</quad4>
			<quad4 id="8" lc="2" tx="0" ty="0" tz="-0.25">     8,   210,   211,     9</quad4>
			<quad4 id="9" lc="2" tx="0" ty="0" tz="-0.25">     9,   211,   212,    10</quad4>
			<quad4 id="10" lc="2" tx="0" ty="0" tz="-0.25">    10,   212,   213,    11</quad4>
			<quad4 id="11" lc="2" tx="0" ty="0" tz="-0.25">    11,   213,   214,    12</quad4>
			<quad4 id="12" lc="2" tx="0" ty="0" tz="-0.25">    12,   214,   215,    13</quad4>
			<quad4 id="13" lc="2" tx="0" ty="0" tz="-0.25">    13,   215,   216,    14</quad4>
			<quad4 id="14" lc="2" tx="0" ty="0" tz="-0.25">    14,   216,   217,    15</quad4>
			<quad4 id="15" lc="2" tx="0" ty="0" tz="-0.25">    15,   217,   218,    16</quad4>
			<quad4 id="16" lc="2" tx="0" ty="0" tz="-0.25">    16,   218,   219,    17</quad4>
			<quad4 id="17" lc="2" tx="0" ty="0" tz="-0.25">    17,   219,   220,    18</quad4>
			<quad4 id="18" lc="2" tx="0" ty="0" tz="-0.25">    18,   220,   221,    19</quad4>
			<quad4 id="19" lc="2" tx="0" ty="0" tz="-0.25">    19,   221,   222,    20</quad4>
			<quad4 id="20" lc="2" tx="0" ty="0" tz="-0.25">    20,   222,   223,    21</quad4>
<!-- ... 380 like lines cut -->
		</traction>
	</Loads>
	<LoadData>
		<loadcurve id="1" type="step">
			<loadpoint>0,0</loadpoint>
			<loadpoint>1,10</loadpoint>
		</loadcurve>
		<loadcurve id="2" type="step">
			<loadpoint>0,0</loadpoint>
			<loadpoint>1,1</loadpoint>
		</loadcurve>
	</LoadData>
	<Output>
		<plotfile type="febio">
			<var type="displacement"/>
			<var type="effective fluid pressure"/>
			<var type="fluid flux"/>
			<var type="fluid pressure"/>
			<var type="sbm 1 concentration"/>
			<var type="sbm 1 referential apparent density"/>
			<var type="density"/>
			<var type="strain energy density"/>
			<var type="specific strain energy"/>
			<var type="stress"/>
		</plotfile>
		<logfile>
			<element_data data="sz">58</element_data>
		</logfile>
	</Output>
</febio_spec>
