<?xml version="1.0" encoding="ISO-8859-1"?>
<!-- 
Problem Description:
One-dimensional analysis of interstitial growth where the net reaction molar volume is not zero.  This analysis models the chemical reaction

[nutrient] -> [solid]

where the molar volume of the solid is different from that of the nutrient.  The [nutrient] is not modeled explicitly, whereas the [solid] product is modeled as a solid-bound molecule.The 1D analysis is performed on a cube of height h=1.  The multiphasic material consists of a solid and a fluid phase (no explicit solutes).  The top surface of the cube is traction-free and free-draining.  Continuou

Main Features:
	Multiphasic material with chemical reaction where Vbar is not equal to zero
Secondary Features:
Materials:
	Multiphasic
	Neo-Hookean
	Constant Isotropic Permeability
	Constant Osmotic Coefficient
	Mass-Action-Forward
	Constant Reaction Rate
Degrees of Freedom: 240
Results:
	Steps Completed: 101
	Equilibrium Iterations: 305
	Right Hand Evaluations: 610
	Siffness Reformations: 305
	Other:
		The steady-state surface displacement is 3.32e-4 at time t=3.
 
Comments:
	
-->
<febio_spec version="1.2">
	<Module type="multiphasic"/>
	<Control>
		<time_steps>3000</time_steps>
		<step_size>0.001</step_size>
		<max_refs>15</max_refs>
		<max_ups>0</max_ups>
		<dtol>0.001</dtol>
		<etol>0.01</etol>
		<rtol>0</rtol>
		<ptol>0.01</ptol>
		<ctol>0.01</ctol>
		<lstol>0.9</lstol>
		<time_stepper>
			<dtmin>0.0001</dtmin>
			<dtmax>0.01</dtmax>
			<max_retries>5</max_retries>
			<opt_iter>10</opt_iter>
		</time_stepper>
		<symmetric_biphasic>0</symmetric_biphasic>
	</Control>
	<Globals>
		<Constants>
			<T>293</T>
			<R>8.314e-06</R>
			<Fc>9.65e-05</Fc>
		</Constants>
		<Solutes>
			<solute id="1" name="nutrient">
				<charge_number>0</charge_number>
			</solute>
		</Solutes>
		<SolidBoundMolecules>
			<solid_bound id="1" name="solid">
				<charge_number>0</charge_number>
				<density>1</density>
				<molar_mass>1</molar_mass>
			</solid_bound>
		</SolidBoundMolecules>
	</Globals>
	<Material>
		<material id="1" name="Tissue" type="multiphasic">
			<phi0>0</phi0>
			<fixed_charge_density>0</fixed_charge_density>
			<solid_bound sbm="1">
				<rho0>0</rho0>
			</solid_bound>
			<solid type="neo-Hookean">
				<density>1</density>
				<E>1</E>
				<v>0</v>
			</solid>
			<permeability type="perm-const-iso">
				<perm>1</perm>
			</permeability>
			<osmotic_coefficient type="osm-coef-const">
				<osmcoef>1</osmcoef>
			</osmotic_coefficient>
			<reaction name="volumetric growth" type="mass-action-forward">
			  <Vbar>1</Vbar>
			  <vP sbm="1">1</vP>
			  <forward_rate type="constant reaction rate">
			    <k>1e-3</k>
			  </forward_rate>
			</reaction>
		</material>
	</Material>
	<Geometry>
		<Nodes>
			<node id="1"> -5.0000000e-01, -5.0000000e-01,  0.0000000e+00</node>
			<node id="2"> -5.0000000e-01, -5.0000000e-01,  1.2264939e-01</node>
			<node id="3"> -5.0000000e-01, -5.0000000e-01,  2.3058085e-01</node>
			<node id="4"> -5.0000000e-01, -5.0000000e-01,  3.2556054e-01</node>
			<node id="5"> -5.0000000e-01, -5.0000000e-01,  4.0914266e-01</node>
			<node id="6"> -5.0000000e-01, -5.0000000e-01,  4.8269493e-01</node>
			<node id="7"> -5.0000000e-01, -5.0000000e-01,  5.4742092e-01</node>
			<node id="8"> -5.0000000e-01, -5.0000000e-01,  6.0437980e-01</node>
			<node id="9"> -5.0000000e-01, -5.0000000e-01,  6.5450361e-01</node>
			<node id="10"> -5.0000000e-01, -5.0000000e-01,  6.9861257e-01</node>
			<node id="11"> -5.0000000e-01, -5.0000000e-01,  7.3742845e-01</node>
			<node id="12"> -5.0000000e-01, -5.0000000e-01,  7.7158642e-01</node>
			<node id="13"> -5.0000000e-01, -5.0000000e-01,  8.0164544e-01</node>
			<node id="14"> -5.0000000e-01, -5.0000000e-01,  8.2809737e-01</node>
			<node id="15"> -5.0000000e-01, -5.0000000e-01,  8.5137508e-01</node>
			<node id="16"> -5.0000000e-01, -5.0000000e-01,  8.7185946e-01</node>
			<node id="17"> -5.0000000e-01, -5.0000000e-01,  8.8988571e-01</node>
			<node id="18"> -5.0000000e-01, -5.0000000e-01,  9.0574881e-01</node>
			<node id="19"> -5.0000000e-01, -5.0000000e-01,  9.1970834e-01</node>
			<node id="20"> -5.0000000e-01, -5.0000000e-01,  9.3199273e-01</node>
<!-- ... 104 like lines cut -->
		</Nodes>
		<Elements>
			<hex8 id="1" mat="1">     1,    63,    94,    32,     2,    64,    95,    33</hex8>
			<hex8 id="2" mat="1">     2,    64,    95,    33,     3,    65,    96,    34</hex8>
			<hex8 id="3" mat="1">     3,    65,    96,    34,     4,    66,    97,    35</hex8>
			<hex8 id="4" mat="1">     4,    66,    97,    35,     5,    67,    98,    36</hex8>
			<hex8 id="5" mat="1">     5,    67,    98,    36,     6,    68,    99,    37</hex8>
			<hex8 id="6" mat="1">     6,    68,    99,    37,     7,    69,   100,    38</hex8>
			<hex8 id="7" mat="1">     7,    69,   100,    38,     8,    70,   101,    39</hex8>
			<hex8 id="8" mat="1">     8,    70,   101,    39,     9,    71,   102,    40</hex8>
			<hex8 id="9" mat="1">     9,    71,   102,    40,    10,    72,   103,    41</hex8>
			<hex8 id="10" mat="1">    10,    72,   103,    41,    11,    73,   104,    42</hex8>
			<hex8 id="11" mat="1">    11,    73,   104,    42,    12,    74,   105,    43</hex8>
			<hex8 id="12" mat="1">    12,    74,   105,    43,    13,    75,   106,    44</hex8>
			<hex8 id="13" mat="1">    13,    75,   106,    44,    14,    76,   107,    45</hex8>
			<hex8 id="14" mat="1">    14,    76,   107,    45,    15,    77,   108,    46</hex8>
			<hex8 id="15" mat="1">    15,    77,   108,    46,    16,    78,   109,    47</hex8>
			<hex8 id="16" mat="1">    16,    78,   109,    47,    17,    79,   110,    48</hex8>
			<hex8 id="17" mat="1">    17,    79,   110,    48,    18,    80,   111,    49</hex8>
			<hex8 id="18" mat="1">    18,    80,   111,    49,    19,    81,   112,    50</hex8>
			<hex8 id="19" mat="1">    19,    81,   112,    50,    20,    82,   113,    51</hex8>
			<hex8 id="20" mat="1">    20,    82,   113,    51,    21,    83,   114,    52</hex8>
<!-- ... 10 like lines cut -->
		</Elements>
	</Geometry>
	<Boundary>
		<fix>
			<node id="1" bc="x"/>
			<node id="2" bc="x"/>
			<node id="3" bc="x"/>
			<node id="4" bc="x"/>
			<node id="5" bc="x"/>
			<node id="6" bc="x"/>
			<node id="7" bc="x"/>
			<node id="8" bc="x"/>
			<node id="9" bc="x"/>
			<node id="10" bc="x"/>
			<node id="11" bc="x"/>
			<node id="12" bc="x"/>
			<node id="13" bc="x"/>
			<node id="14" bc="x"/>
			<node id="15" bc="x"/>
			<node id="16" bc="x"/>
			<node id="17" bc="x"/>
			<node id="18" bc="x"/>
			<node id="19" bc="x"/>
			<node id="20" bc="x"/>
<!-- ... 228 like lines cut -->
		</fix>
		<fix>
			<node id="1" bc="y"/>
			<node id="2" bc="y"/>
			<node id="3" bc="y"/>
			<node id="4" bc="y"/>
			<node id="5" bc="y"/>
			<node id="6" bc="y"/>
			<node id="7" bc="y"/>
			<node id="8" bc="y"/>
			<node id="9" bc="y"/>
			<node id="10" bc="y"/>
			<node id="11" bc="y"/>
			<node id="12" bc="y"/>
			<node id="13" bc="y"/>
			<node id="14" bc="y"/>
			<node id="15" bc="y"/>
			<node id="16" bc="y"/>
			<node id="17" bc="y"/>
			<node id="18" bc="y"/>
			<node id="19" bc="y"/>
			<node id="20" bc="y"/>
<!-- ... 228 like lines cut -->
		</fix>
		<fix>
			<node id="1" bc="z"/>
			<node id="32" bc="z"/>
			<node id="63" bc="z"/>
			<node id="94" bc="z"/>
		</fix>
		<fix>
			<node id="31" bc="p"/>
			<node id="62" bc="p"/>
			<node id="93" bc="p"/>
			<node id="124" bc="p"/>
		</fix>
	</Boundary>
	<Output>
		<plotfile type="febio">
			<var type="displacement"/>
			<var type="effective fluid pressure"/>
			<var type="fluid flux"/>
			<var type="fluid pressure"/>
			<var type="relative volume"/>
			<var type="stress"/>
			<var type="velocity"/>
			<var type="density"/>
			<var type="sbm 1 concentration"/>
			<var type="referential solid volume fraction"/>
		</plotfile>
		<logfile>
			<element_data data="wz">7</element_data>
		</logfile>
	</Output>
</febio_spec>
