<?xml version="1.0" encoding="ISO-8859-1"?>
<!--
Problem Description:
	A stationary point at node 9 is connected by a spring to node 1 on the left face of the element.
	The nodes on the right face of the element have a prescribed displacement of 1 unit in time t=1.
Main Features:
	Nodal springs
Secondary Features:
	
Materials:
	Neo-Hookean
Degrees of Freedom: 16
Results:
	Steps Completed: 10
	Equilibrium Iterations: 30
	Right Hand Evaluations: 40
	Siffness Reformations: 10
	Other:
		At time t=1, the x-displacement of node 1 should be 0.638
Comments:
	
-->
<febio_spec version="1.2">
	<Control>
		<title>Corner Nodal Spring</title>
		<time_steps>10</time_steps>
		<step_size>0.1</step_size>
		<max_refs>15</max_refs>
		<max_ups>10</max_ups>
		<dtol>0.001</dtol>
		<etol>0.01</etol>
		<rtol>0</rtol>
		<lstol>0.9</lstol>
		<time_stepper>
			<dtmin>0.01</dtmin>
			<dtmax>0.1</dtmax>
			<max_retries>5</max_retries>
			<opt_iter>10</opt_iter>
		</time_stepper>
		<plot_level>PLOT_DEFAULT</plot_level>
	</Control>
	<Material>
		<material id="1" name="Material 1" type="neo-Hookean">
			<E>1</E>
			<v>0.4</v>
		</material>
	</Material>
	<Geometry>
		<Nodes>
			<node id="1">-5.0000000e-001,-5.0000000e-001, 0.0000000e+000</node>
			<node id="2">-5.0000000e-001,-5.0000000e-001, 1.0000000e+000</node>
			<node id="3">-5.0000000e-001, 5.0000000e-001, 0.0000000e+000</node>
			<node id="4">-5.0000000e-001, 5.0000000e-001, 1.0000000e+000</node>
			<node id="5"> 5.0000000e-001,-5.0000000e-001, 0.0000000e+000</node>
			<node id="6"> 5.0000000e-001,-5.0000000e-001, 1.0000000e+000</node>
			<node id="7"> 5.0000000e-001, 5.0000000e-001, 0.0000000e+000</node>
			<node id="8"> 5.0000000e-001, 5.0000000e-001, 1.0000000e+000</node>
			<node id="9">-5.0000000e-001,-5.0000000e-001, 0.0000000e+000</node>
		</Nodes>
		<Elements>
			<hex8 id="1" mat="1">     1,     5,     7,     3,     2,     6,     8,     4</hex8>
		</Elements>
	</Geometry>
	<Boundary>
		<fix>
			<node id="1" bc="yz"></node>
			<node id="2" bc="yz"></node>
			<node id="3" bc="yz"></node>
			<node id="4" bc="yz"></node>
			<node id="9" bc="xyz"></node>
		</fix>
		<prescribe>
			<node id="5" bc="x" lc="1">1</node>
			<node id="6" bc="x" lc="1">1</node>
			<node id="7" bc="x" lc="1">1</node>
			<node id="8" bc="x" lc="1">1</node>
		</prescribe>
		<spring>
			<node>1, 9</node>
			<E>0.1</E>
		</spring>
	</Boundary>
	<LoadData>
		<loadcurve id="1">
			<loadpoint>0,0</loadpoint>
			<loadpoint>1,1</loadpoint>
		</loadcurve>
	</LoadData>
	<Output>
		<plotfile type="febio"></plotfile>
	    <logfile>
			<element_data data="Ex">1</element_data>
		</logfile>
	</Output>
</febio_spec>
