<?xml version="1.0" encoding="ISO-8859-1"?>
<!--
Problem Description:
	Two cantilever boards are connected by nodal springs on their free ends and a vertical force
	 curve of 0 units at t=0 and 100 units at t=1 is applied to the right board.
Main Features:
	Nodal springs
Secondary Features:
	
Materials:
	Neo-Hookean
Degrees of Freedom: 540
Results:
	Steps Completed: 50
	Equilibrium Iterations: 223
	Right Hand Evaluations: 383
	Siffness Reformations: 51
	Other:
		At time t=1, the maximum total displacement is 4.53.
Comments:
	
-->
<febio_spec version="1.2">
	<Control>
		<title>Cantilevers with Nodal Springs</title>
		<time_steps>50</time_steps>
		<step_size>0.02</step_size>
		<max_refs>15</max_refs>
		<max_ups>10</max_ups>
		<dtol>0.001</dtol>
		<etol>0.01</etol>
		<rtol>0</rtol>
		<lstol>0.9</lstol>
		<plot_level>PLOT_DEFAULT</plot_level>
	</Control>
	<Material>
		<material id="1" name="Material 2" type="neo-Hookean">
			<E>10000</E>
			<v>0.3</v>
		</material>
	</Material>
	<Geometry>
		<Nodes>
			<node id="1">-2.5000000e+000,-5.0000000e-001, 0.0000000e+000</node>
			<node id="2">-2.5000000e+000,-5.0000000e-001, 1.0000000e-001</node>
			<node id="3">-2.5000000e+000,-5.0000000e-001, 2.0000000e-001</node>
			<node id="4">-2.5000000e+000, 0.0000000e+000, 0.0000000e+000</node>
			<node id="5">-2.5000000e+000, 0.0000000e+000, 1.0000000e-001</node>
			<node id="6">-2.5000000e+000, 0.0000000e+000, 2.0000000e-001</node>
			<node id="7">-2.5000000e+000, 5.0000000e-001, 0.0000000e+000</node>
			<node id="8">-2.5000000e+000, 5.0000000e-001, 1.0000000e-001</node>
			<node id="9">-2.5000000e+000, 5.0000000e-001, 2.0000000e-001</node>
			<node id="10">-2.0000000e+000,-5.0000000e-001, 0.0000000e+000</node>
			<node id="11">-2.0000000e+000,-5.0000000e-001, 1.0000000e-001</node>
			<node id="12">-2.0000000e+000,-5.0000000e-001, 2.0000000e-001</node>
			<node id="13">-2.0000000e+000, 0.0000000e+000, 0.0000000e+000</node>
			<node id="14">-2.0000000e+000, 0.0000000e+000, 1.0000000e-001</node>
			<node id="15">-2.0000000e+000, 0.0000000e+000, 2.0000000e-001</node>
			<node id="16">-2.0000000e+000, 5.0000000e-001, 0.0000000e+000</node>
			<node id="17">-2.0000000e+000, 5.0000000e-001, 1.0000000e-001</node>
			<node id="18">-2.0000000e+000, 5.0000000e-001, 2.0000000e-001</node>
			<node id="19">-1.5000000e+000,-5.0000000e-001, 0.0000000e+000</node>
			<node id="20">-1.5000000e+000,-5.0000000e-001, 1.0000000e-001</node>
<!-- ... 178 like lines cut -->
		</Nodes>
		<Elements>
			<hex8 id="1" mat="1">     1,    10,    13,     4,     2,    11,    14,     5</hex8>
			<hex8 id="2" mat="1">     2,    11,    14,     5,     3,    12,    15,     6</hex8>
			<hex8 id="3" mat="1">     4,    13,    16,     7,     5,    14,    17,     8</hex8>
			<hex8 id="4" mat="1">     5,    14,    17,     8,     6,    15,    18,     9</hex8>
			<hex8 id="5" mat="1">    10,    19,    22,    13,    11,    20,    23,    14</hex8>
			<hex8 id="6" mat="1">    11,    20,    23,    14,    12,    21,    24,    15</hex8>
			<hex8 id="7" mat="1">    13,    22,    25,    16,    14,    23,    26,    17</hex8>
			<hex8 id="8" mat="1">    14,    23,    26,    17,    15,    24,    27,    18</hex8>
			<hex8 id="9" mat="1">    19,    28,    31,    22,    20,    29,    32,    23</hex8>
			<hex8 id="10" mat="1">    20,    29,    32,    23,    21,    30,    33,    24</hex8>
			<hex8 id="11" mat="1">    22,    31,    34,    25,    23,    32,    35,    26</hex8>
			<hex8 id="12" mat="1">    23,    32,    35,    26,    24,    33,    36,    27</hex8>
			<hex8 id="13" mat="1">    28,    37,    40,    31,    29,    38,    41,    32</hex8>
			<hex8 id="14" mat="1">    29,    38,    41,    32,    30,    39,    42,    33</hex8>
			<hex8 id="15" mat="1">    31,    40,    43,    34,    32,    41,    44,    35</hex8>
			<hex8 id="16" mat="1">    32,    41,    44,    35,    33,    42,    45,    36</hex8>
			<hex8 id="17" mat="1">    37,    46,    49,    40,    38,    47,    50,    41</hex8>
			<hex8 id="18" mat="1">    38,    47,    50,    41,    39,    48,    51,    42</hex8>
			<hex8 id="19" mat="1">    40,    49,    52,    43,    41,    50,    53,    44</hex8>
			<hex8 id="20" mat="1">    41,    50,    53,    44,    42,    51,    54,    45</hex8>
<!-- ... 60 like lines cut -->
		</Elements>
	</Geometry>
	<Boundary>
		<fix>
			<node id="1" bc="xyz"></node>
			<node id="2" bc="xyz"></node>
			<node id="3" bc="xyz"></node>
			<node id="4" bc="xyz"></node>
			<node id="5" bc="xyz"></node>
			<node id="6" bc="xyz"></node>
			<node id="7" bc="xyz"></node>
			<node id="8" bc="xyz"></node>
			<node id="9" bc="xyz"></node>
			<node id="190" bc="xyz"></node>
			<node id="191" bc="xyz"></node>
			<node id="192" bc="xyz"></node>
			<node id="193" bc="xyz"></node>
			<node id="194" bc="xyz"></node>
			<node id="195" bc="xyz"></node>
			<node id="196" bc="xyz"></node>
			<node id="197" bc="xyz"></node>
			<node id="198" bc="xyz"></node>
		</fix>
		<spring>
			<node>100, 93</node>
			<E>50</E>
		</spring>
		<spring>
			<node>106, 99</node>
			<E>50</E>
		</spring>
	</Boundary>
	<Loads>
		<force>
			<node id="102" bc="z" lc="1">1</node>
			<node id="105" bc="z" lc="1">1</node>
			<node id="108" bc="z" lc="1">1</node>
		</force>
	</Loads>
	<LoadData>
		<loadcurve id="1">
			<loadpoint>0,0</loadpoint>
			<loadpoint>1,100</loadpoint>
		</loadcurve>
	</LoadData>
	<Output>
		<plotfile type="febio"></plotfile>
	    <logfile>
			<element_data data="sy">1</element_data>
		</logfile>
	</Output>
</febio_spec>
