<?xml version="1.0" encoding="ISO-8859-1"?>
<!--
Problem Description:
	A cantilever board has a constant body force of 1 unit applied in the z-direction.
Main Features:
	Dynamic analysis
	Body force
Secondary Features:
	
Materials:
	Neo-Hookean
Degrees of Freedom: 540
Results:
	Steps Completed: 167
	Equilibrium Iterations: 489
	Right Hand Evaluations: 656
	Siffness Reformations: 167
	Other:
		The free end of the board has a maximum total displacement of 22.1 at time t=8.6.
Comments:
	
-->
<febio_spec version="1.2">
	<Control>
		<title>Dynamic Cantilever with Body Force</title>
		<time_steps>84</time_steps>
		<step_size>0.2</step_size>
		<max_refs>15</max_refs>
		<max_ups>10</max_ups>
		<dtol>0.001</dtol>
		<etol>0.01</etol>
		<rtol>0</rtol>
		<lstol>0.9</lstol>
		<time_stepper>
			<dtmin>0.01</dtmin>
			<dtmax>0.1</dtmax>
			<max_retries>5</max_retries>
			<opt_iter>10</opt_iter>
		</time_stepper>
		<plot_level>PLOT_DEFAULT</plot_level>
		<analysis type="dynamic"></analysis>
	</Control>
	<Material>
		<material id="1" name="Material 2" type="neo-Hookean">
			<density>1</density>
			<E>1e4</E>
			<v>0</v>
		</material>
	</Material>
	<Geometry>
		<Nodes>
			<node id="1">-1.0000000e+001,-1.0000000e+000, 0.0000000e+000</node>
			<node id="2">-1.0000000e+001,-1.0000000e+000, 5.0000000e-001</node>
			<node id="3">-1.0000000e+001,-1.0000000e+000, 1.0000000e+000</node>
			<node id="4">-1.0000000e+001, 0.0000000e+000, 0.0000000e+000</node>
			<node id="5">-1.0000000e+001, 0.0000000e+000, 5.0000000e-001</node>
			<node id="6">-1.0000000e+001, 0.0000000e+000, 1.0000000e+000</node>
			<node id="7">-1.0000000e+001, 1.0000000e+000, 0.0000000e+000</node>
			<node id="8">-1.0000000e+001, 1.0000000e+000, 5.0000000e-001</node>
			<node id="9">-1.0000000e+001, 1.0000000e+000, 1.0000000e+000</node>
			<node id="10">-9.0000000e+000,-1.0000000e+000, 0.0000000e+000</node>
			<node id="11">-9.0000000e+000,-1.0000000e+000, 5.0000000e-001</node>
			<node id="12">-9.0000000e+000,-1.0000000e+000, 1.0000000e+000</node>
			<node id="13">-9.0000000e+000, 0.0000000e+000, 0.0000000e+000</node>
			<node id="14">-9.0000000e+000, 0.0000000e+000, 5.0000000e-001</node>
			<node id="15">-9.0000000e+000, 0.0000000e+000, 1.0000000e+000</node>
			<node id="16">-9.0000000e+000, 1.0000000e+000, 0.0000000e+000</node>
			<node id="17">-9.0000000e+000, 1.0000000e+000, 5.0000000e-001</node>
			<node id="18">-9.0000000e+000, 1.0000000e+000, 1.0000000e+000</node>
			<node id="19">-8.0000000e+000,-1.0000000e+000, 0.0000000e+000</node>
			<node id="20">-8.0000000e+000,-1.0000000e+000, 5.0000000e-001</node>
<!-- ... 169 like lines cut -->
		</Nodes>
		<Elements>
			<hex8 id="1" mat="1">     1,    10,    13,     4,     2,    11,    14,     5</hex8>
			<hex8 id="2" mat="1">     2,    11,    14,     5,     3,    12,    15,     6</hex8>
			<hex8 id="3" mat="1">     4,    13,    16,     7,     5,    14,    17,     8</hex8>
			<hex8 id="4" mat="1">     5,    14,    17,     8,     6,    15,    18,     9</hex8>
			<hex8 id="5" mat="1">    10,    19,    22,    13,    11,    20,    23,    14</hex8>
			<hex8 id="6" mat="1">    11,    20,    23,    14,    12,    21,    24,    15</hex8>
			<hex8 id="7" mat="1">    13,    22,    25,    16,    14,    23,    26,    17</hex8>
			<hex8 id="8" mat="1">    14,    23,    26,    17,    15,    24,    27,    18</hex8>
			<hex8 id="9" mat="1">    19,    28,    31,    22,    20,    29,    32,    23</hex8>
			<hex8 id="10" mat="1">    20,    29,    32,    23,    21,    30,    33,    24</hex8>
			<hex8 id="11" mat="1">    22,    31,    34,    25,    23,    32,    35,    26</hex8>
			<hex8 id="12" mat="1">    23,    32,    35,    26,    24,    33,    36,    27</hex8>
			<hex8 id="13" mat="1">    28,    37,    40,    31,    29,    38,    41,    32</hex8>
			<hex8 id="14" mat="1">    29,    38,    41,    32,    30,    39,    42,    33</hex8>
			<hex8 id="15" mat="1">    31,    40,    43,    34,    32,    41,    44,    35</hex8>
			<hex8 id="16" mat="1">    32,    41,    44,    35,    33,    42,    45,    36</hex8>
			<hex8 id="17" mat="1">    37,    46,    49,    40,    38,    47,    50,    41</hex8>
			<hex8 id="18" mat="1">    38,    47,    50,    41,    39,    48,    51,    42</hex8>
			<hex8 id="19" mat="1">    40,    49,    52,    43,    41,    50,    53,    44</hex8>
			<hex8 id="20" mat="1">    41,    50,    53,    44,    42,    51,    54,    45</hex8>
<!-- ... 60 like lines cut -->
		</Elements>
	</Geometry>
	<Boundary>
		<fix>
			<node id="1" bc="xyz"></node>
			<node id="2" bc="xyz"></node>
			<node id="3" bc="xyz"></node>
			<node id="4" bc="xyz"></node>
			<node id="5" bc="xyz"></node>
			<node id="6" bc="xyz"></node>
			<node id="7" bc="xyz"></node>
			<node id="8" bc="xyz"></node>
			<node id="9" bc="xyz"></node>
		</fix>
	</Boundary>
	<Loads>
		<body_force>
			<z lc="1">1</z>
		</body_force>
	</Loads>
	<LoadData>
		<loadcurve id="1">
			<loadpoint>0,1</loadpoint>
			<loadpoint>1,1</loadpoint>
		</loadcurve>
	</LoadData>
	<Output>
		<plotfile type="febio"></plotfile>
	    <logfile>
			<element_data data="sz">26</element_data>
		</logfile>
	</Output>
</febio_spec>
