<?xml version="1.0" encoding="ISO-8859-1"?>
<!--
Problem Description:
	Two balls have a constant body force of 1 unit in the z-direction and bounce off of
	each other and a rigid horizontal wall.  Note that the rigid body horizontal wall is
	only there to visulalize the rigid-wall contact.
Main Features:
	Dynamic Analysis
	Body Force
	Sliding Contact
	Rigid-wall Contact
Secondary Features:
	
Materials:
	Neo-Hookean
	Rigid Body
Degrees of Freedom: 3102
Results:
	Steps Completed: 50
	Equilibrium Iterations: 280
	Right Hand Evaluations: 431
	Siffness Reformations: 77
	Other:
		The bottom ball has its maximum z-displacement of -1.96 at time t=1.7 (on its
		first bounce).
Comments:
	The penalty values of 10000 were necessary in order to reduce the penetration.  Facet to
	fact contact converges somewhat faster than sliding_with_gaps, but the penetration is
	is better with the latter.
-->
<febio_spec version="1.2">
	<Control>
		<title>Dynamic Balls with Body Force</title>
		<time_steps>40</time_steps>
		<step_size>0.1</step_size>
		<max_refs>15</max_refs>
		<max_ups>10</max_ups>
		<dtol>0.001</dtol>
		<etol>0.01</etol>
		<rtol>0</rtol>
		<lstol>0.9</lstol>
		<pressure_stiffness>1</pressure_stiffness>
		<time_stepper>
			<dtmin>0.01</dtmin>
			<dtmax lc="2"></dtmax>
			<max_retries>5</max_retries>
			<opt_iter>100</opt_iter>
		</time_stepper>
		<plot_level>PLOT_DEFAULT</plot_level>
		<analysis type="dynamic"></analysis>
	</Control>
	<Material>
		<material id="1" name="Material 5" type="neo-Hookean">
			<E>500</E>
			<v>0.3</v>
		</material>
		<material id="2" name="Material 6" type="rigid body">
			<density>1</density>
		</material>
		<material id="3" name="Material 7" type="neo-Hookean">
			<E>500</E>
			<v>0.3</v>
		</material>
	</Material>
	<Geometry>
		<Nodes>
			<node id="1">-1.0000000e+001,-1.0000000e+001,-1.0000000e-002</node>
			<node id="2">-1.0000000e+001,-1.0000000e+001, 0.0000000e+000</node>
			<node id="3">-1.0000000e+001, 1.0000000e+001,-1.0000000e-002</node>
			<node id="4">-1.0000000e+001, 1.0000000e+001, 0.0000000e+000</node>
			<node id="5"> 1.0000000e+001,-1.0000000e+001,-1.0000000e-002</node>
			<node id="6"> 1.0000000e+001,-1.0000000e+001, 0.0000000e+000</node>
			<node id="7"> 1.0000000e+001, 1.0000000e+001,-1.0000000e-002</node>
			<node id="8"> 1.0000000e+001, 1.0000000e+001, 0.0000000e+000</node>
			<node id="9">-3.5355339e-001,-3.5355339e-001, 1.6464466e+000</node>
			<node id="10">-1.5909902e-001,-3.5355339e-001, 1.6464466e+000</node>
			<node id="11"> 0.0000000e+000,-3.5355339e-001, 1.6464466e+000</node>
			<node id="12"> 1.5909902e-001,-3.5355339e-001, 1.6464466e+000</node>
			<node id="13"> 3.5355339e-001,-3.5355339e-001, 1.6464466e+000</node>
			<node id="14">-3.5355339e-001,-1.5909902e-001, 1.6464466e+000</node>
			<node id="15">-1.5909902e-001,-1.5909902e-001, 1.6464466e+000</node>
			<node id="16"> 0.0000000e+000,-1.5909902e-001, 1.6464466e+000</node>
			<node id="17"> 1.5909902e-001,-1.5909902e-001, 1.6464466e+000</node>
			<node id="18"> 3.5355339e-001,-1.5909902e-001, 1.6464466e+000</node>
			<node id="19">-3.5355339e-001, 0.0000000e+000, 1.6464466e+000</node>
			<node id="20">-1.5909902e-001, 0.0000000e+000, 1.6464466e+000</node>
<!-- ... 1022 like lines cut -->
		</Nodes>
		<Elements>
			<hex8 id="1" mat="2">     1,     5,     7,     3,     2,     6,     8,     4</hex8>
			<hex8 id="2" mat="1">     9,    10,    15,    14,    34,    35,    40,    39</hex8>
			<hex8 id="3" mat="1">    10,    11,    16,    15,    35,    36,    41,    40</hex8>
			<hex8 id="4" mat="1">    11,    12,    17,    16,    36,    37,    42,    41</hex8>
			<hex8 id="5" mat="1">    12,    13,    18,    17,    37,    38,    43,    42</hex8>
			<hex8 id="6" mat="1">    14,    15,    20,    19,    39,    40,    45,    44</hex8>
			<hex8 id="7" mat="1">    15,    16,    21,    20,    40,    41,    46,    45</hex8>
			<hex8 id="8" mat="1">    16,    17,    22,    21,    41,    42,    47,    46</hex8>
			<hex8 id="9" mat="1">    17,    18,    23,    22,    42,    43,    48,    47</hex8>
			<hex8 id="10" mat="1">    19,    20,    25,    24,    44,    45,    50,    49</hex8>
			<hex8 id="11" mat="1">    20,    21,    26,    25,    45,    46,    51,    50</hex8>
			<hex8 id="12" mat="1">    21,    22,    27,    26,    46,    47,    52,    51</hex8>
			<hex8 id="13" mat="1">    22,    23,    28,    27,    47,    48,    53,    52</hex8>
			<hex8 id="14" mat="1">    24,    25,    30,    29,    49,    50,    55,    54</hex8>
			<hex8 id="15" mat="1">    25,    26,    31,    30,    50,    51,    56,    55</hex8>
			<hex8 id="16" mat="1">    26,    27,    32,    31,    51,    52,    57,    56</hex8>
			<hex8 id="17" mat="1">    27,    28,    33,    32,    52,    53,    58,    57</hex8>
			<hex8 id="18" mat="1">    34,    35,    40,    39,    59,    60,    65,    64</hex8>
			<hex8 id="19" mat="1">    35,    36,    41,    40,    60,    61,    66,    65</hex8>
			<hex8 id="20" mat="1">    36,    37,    42,    41,    61,    62,    67,    66</hex8>
<!-- ... 877 like lines cut -->
		</Elements>
	</Geometry>
	<Boundary>
		<contact type="rigid_wall">
			<tolerance>0.01</tolerance>
			<penalty>10000</penalty>
			<plane>0,0,1,0</plane>
			<surface>
				<quad4 id="1">   433,   428,   453,   458</quad4>
				<quad4 id="2">   428,   429,   454,   453</quad4>
				<quad4 id="3">   433,   434,   429,   428</quad4>
				<quad4 id="4">   429,   430,   455,   454</quad4>
				<quad4 id="5">   434,   435,   430,   429</quad4>
				<quad4 id="6">   430,   431,   456,   455</quad4>
				<quad4 id="7">   435,   436,   431,   430</quad4>
				<quad4 id="8">   432,   437,   459,   457</quad4>
				<quad4 id="9">   431,   432,   457,   456</quad4>
				<quad4 id="10">   436,   437,   432,   431</quad4>
				<quad4 id="11">   438,   433,   458,   460</quad4>
				<quad4 id="12">   438,   439,   434,   433</quad4>
				<quad4 id="13">   439,   440,   435,   434</quad4>
				<quad4 id="14">   440,   441,   436,   435</quad4>
				<quad4 id="15">   437,   442,   461,   459</quad4>
				<quad4 id="16">   441,   442,   437,   436</quad4>
				<quad4 id="17">   443,   438,   460,   462</quad4>
				<quad4 id="18">   443,   444,   439,   438</quad4>
				<quad4 id="19">   444,   445,   440,   439</quad4>
				<quad4 id="20">   445,   446,   441,   440</quad4>
<!-- ... 28 like lines cut -->
			</surface>
		</contact>
		<contact type="sliding_with_gaps">
			<tolerance>0.01</tolerance>
			<penalty>10000</penalty>
			<two_pass>1</two_pass>
			<surface type="master">
				<quad4 id="1">   950,   945,   970,   975</quad4>
				<quad4 id="2">   945,   946,   971,   970</quad4>
				<quad4 id="3">   950,   951,   946,   945</quad4>
				<quad4 id="4">   946,   947,   972,   971</quad4>
				<quad4 id="5">   951,   952,   947,   946</quad4>
				<quad4 id="6">   947,   948,   973,   972</quad4>
				<quad4 id="7">   952,   953,   948,   947</quad4>
				<quad4 id="8">   949,   954,   976,   974</quad4>
				<quad4 id="9">   948,   949,   974,   973</quad4>
				<quad4 id="10">   953,   954,   949,   948</quad4>
				<quad4 id="11">   955,   950,   975,   977</quad4>
				<quad4 id="12">   955,   956,   951,   950</quad4>
				<quad4 id="13">   956,   957,   952,   951</quad4>
				<quad4 id="14">   957,   958,   953,   952</quad4>
				<quad4 id="15">   954,   959,   978,   976</quad4>
				<quad4 id="16">   958,   959,   954,   953</quad4>
				<quad4 id="17">   960,   955,   977,   979</quad4>
				<quad4 id="18">   960,   961,   956,   955</quad4>
				<quad4 id="19">   961,   962,   957,   956</quad4>
				<quad4 id="20">   962,   963,   958,   957</quad4>
<!-- ... 28 like lines cut -->
			</surface>
			<surface type="slave">
				<quad4 id="49">   474,   469,   485,   490</quad4>
				<quad4 id="50">   469,   470,   486,   485</quad4>
				<quad4 id="51">   470,   471,   487,   486</quad4>
				<quad4 id="52">   471,   472,   488,   487</quad4>
				<quad4 id="53">   473,   475,   491,   489</quad4>
				<quad4 id="54">   472,   473,   489,   488</quad4>
				<quad4 id="55">   476,   474,   490,   492</quad4>
				<quad4 id="56">   475,   477,   493,   491</quad4>
				<quad4 id="57">   478,   476,   492,   494</quad4>
				<quad4 id="58">   477,   479,   495,   493</quad4>
				<quad4 id="59">   480,   478,   494,   496</quad4>
				<quad4 id="60">   481,   480,   496,   497</quad4>
				<quad4 id="61">   482,   481,   497,   498</quad4>
				<quad4 id="62">   483,   482,   498,   499</quad4>
				<quad4 id="63">   479,   484,   500,   495</quad4>
				<quad4 id="64">   484,   483,   499,   500</quad4>
				<quad4 id="65">   490,   485,   501,   506</quad4>
				<quad4 id="66">   485,   486,   502,   501</quad4>
				<quad4 id="67">   501,   502,   507,   506</quad4>
				<quad4 id="68">   486,   487,   503,   502</quad4>
<!-- ... 28 like lines cut -->
			</surface>
		</contact>
		<contact type="rigid_wall">
			<tolerance>0.01</tolerance>
			<penalty>10000</penalty>
			<plane>0,0,1,0</plane>
			<surface>
				<quad4 id="1">   950,   945,   970,   975</quad4>
				<quad4 id="2">   945,   946,   971,   970</quad4>
				<quad4 id="3">   950,   951,   946,   945</quad4>
				<quad4 id="4">   946,   947,   972,   971</quad4>
				<quad4 id="5">   951,   952,   947,   946</quad4>
				<quad4 id="6">   947,   948,   973,   972</quad4>
				<quad4 id="7">   952,   953,   948,   947</quad4>
				<quad4 id="8">   949,   954,   976,   974</quad4>
				<quad4 id="9">   948,   949,   974,   973</quad4>
				<quad4 id="10">   953,   954,   949,   948</quad4>
				<quad4 id="11">   955,   950,   975,   977</quad4>
				<quad4 id="12">   955,   956,   951,   950</quad4>
				<quad4 id="13">   956,   957,   952,   951</quad4>
				<quad4 id="14">   957,   958,   953,   952</quad4>
				<quad4 id="15">   954,   959,   978,   976</quad4>
				<quad4 id="16">   958,   959,   954,   953</quad4>
				<quad4 id="17">   960,   955,   977,   979</quad4>
				<quad4 id="18">   960,   961,   956,   955</quad4>
				<quad4 id="19">   961,   962,   957,   956</quad4>
				<quad4 id="20">   962,   963,   958,   957</quad4>
<!-- ... 28 like lines cut -->
			</surface>
		</contact>
	</Boundary>
	<Loads>
		<body_force>
			<z lc="1">1</z>
		</body_force>
	</Loads>
	<Constraints>
		<rigid_body mat="2">
			<trans_x type="fixed"></trans_x>
			<trans_y type="fixed"></trans_y>
			<trans_z type="fixed"></trans_z>
			<rot_x type="fixed"></rot_x>
			<rot_y type="fixed"></rot_y>
			<rot_z type="fixed"></rot_z>
		</rigid_body>
	</Constraints>
	<LoadData>
		<loadcurve id="1">
			<loadpoint>0,1</loadpoint>
			<loadpoint>1,1</loadpoint>
		</loadcurve>
		<loadcurve id="2" type="step">
			<loadpoint>0,1</loadpoint>
			<loadpoint>1.9,0.1</loadpoint>
		</loadcurve>
	</LoadData>
	<Output>
		<plotfile type="febio"></plotfile>
	    <logfile>
			<element_data data="Ez">427</element_data>
	    </logfile>
    </Output>
</febio_spec>
