<?xml version="1.0" encoding="ISO-8859-1"?>
<!--
Problem Description:
	Dynamic analysis of two cylinders colliding with each other.  The cylinder on the right
	is given an initial velocity of -1 units in the x-direction.
Main Features:
	Dynamic analysis
	Facet to facet contact
Secondary Features:
	Initial velocity
Materials:
	Neo-Hookean
Degrees of Freedom: 11904
Results:
	Steps Completed: 100
	Equilibrium Iterations: 343
	Right Hand Evaluations: 492
	Siffness Reformations: 101
	Other:
		The cylinder on the left (-x direction) has a maximum x-displacement of -8.42 at time t=10.
Comments:
	Penetration was slightly better with slinding_with_gaps contact, but congergence was significantly
	better with facet to facet contact.
-->
<febio_spec version="1.2">
	<Control>
		<title>Colliding Cylinders</title>
		<time_steps>100</time_steps>
		<step_size>0.1</step_size>
		<max_refs>15</max_refs>
		<max_ups>10</max_ups>
		<dtol>0.001</dtol>
		<etol>0.01</etol>
		<rtol>0</rtol>
		<lstol>0.9</lstol>
		<plot_level>PLOT_DEFAULT</plot_level>
		<analysis type="dynamic"></analysis>
	</Control>
	<Material>
		<material id="1" name="Material 1" type="neo-Hookean">
			<E>100</E>
			<v>0</v>
		</material>
		<material id="2" name="Material 2" type="neo-Hookean">
			<E>100</E>
			<v>0</v>
		</material>
	</Material>
	<Geometry>
		<Nodes>
			<node id="1"> 1.8000000e+000, 0.0000000e+000, 0.0000000e+000</node>
			<node id="2"> 1.8666667e+000, 0.0000000e+000, 0.0000000e+000</node>
			<node id="3"> 1.9333333e+000, 0.0000000e+000, 0.0000000e+000</node>
			<node id="4"> 2.0000000e+000, 0.0000000e+000, 0.0000000e+000</node>
			<node id="5"> 1.7391036e+000, 3.0614675e-001, 0.0000000e+000</node>
			<node id="6"> 1.8006956e+000, 3.3165897e-001, 0.0000000e+000</node>
			<node id="7"> 1.8622876e+000, 3.5717120e-001, 0.0000000e+000</node>
			<node id="8"> 1.9238795e+000, 3.8268343e-001, 0.0000000e+000</node>
			<node id="9"> 1.5656854e+000, 5.6568543e-001, 0.0000000e+000</node>
			<node id="10"> 1.6128259e+000, 6.1282587e-001, 0.0000000e+000</node>
			<node id="11"> 1.6599663e+000, 6.5996632e-001, 0.0000000e+000</node>
			<node id="12"> 1.7071068e+000, 7.0710677e-001, 0.0000000e+000</node>
			<node id="13"> 1.3061468e+000, 7.3910363e-001, 0.0000000e+000</node>
			<node id="14"> 1.3316590e+000, 8.0069560e-001, 0.0000000e+000</node>
			<node id="15"> 1.3571712e+000, 8.6228756e-001, 0.0000000e+000</node>
			<node id="16"> 1.3826835e+000, 9.2387952e-001, 0.0000000e+000</node>
			<node id="17"> 1.0000000e+000, 8.0000001e-001, 0.0000000e+000</node>
			<node id="18"> 1.0000000e+000, 8.6666667e-001, 0.0000000e+000</node>
			<node id="19"> 1.0000000e+000, 9.3333334e-001, 0.0000000e+000</node>
			<node id="20"> 1.0000000e+000, 1.0000000e+000, 0.0000000e+000</node>
<!-- ... 3948 like lines cut -->
		</Nodes>
		<Elements>
			<hex8 id="1" mat="2">     1,     2,     6,     5,    65,    66,    70,    69</hex8>
			<hex8 id="2" mat="2">     2,     3,     7,     6,    66,    67,    71,    70</hex8>
			<hex8 id="3" mat="2">     3,     4,     8,     7,    67,    68,    72,    71</hex8>
			<hex8 id="4" mat="2">     5,     6,    10,     9,    69,    70,    74,    73</hex8>
			<hex8 id="5" mat="2">     6,     7,    11,    10,    70,    71,    75,    74</hex8>
			<hex8 id="6" mat="2">     7,     8,    12,    11,    71,    72,    76,    75</hex8>
			<hex8 id="7" mat="2">     9,    10,    14,    13,    73,    74,    78,    77</hex8>
			<hex8 id="8" mat="2">    10,    11,    15,    14,    74,    75,    79,    78</hex8>
			<hex8 id="9" mat="2">    11,    12,    16,    15,    75,    76,    80,    79</hex8>
			<hex8 id="10" mat="2">    13,    14,    18,    17,    77,    78,    82,    81</hex8>
			<hex8 id="11" mat="2">    14,    15,    19,    18,    78,    79,    83,    82</hex8>
			<hex8 id="12" mat="2">    15,    16,    20,    19,    79,    80,    84,    83</hex8>
			<hex8 id="13" mat="2">    17,    18,    22,    21,    81,    82,    86,    85</hex8>
			<hex8 id="14" mat="2">    18,    19,    23,    22,    82,    83,    87,    86</hex8>
			<hex8 id="15" mat="2">    19,    20,    24,    23,    83,    84,    88,    87</hex8>
			<hex8 id="16" mat="2">    21,    22,    26,    25,    85,    86,    90,    89</hex8>
			<hex8 id="17" mat="2">    22,    23,    27,    26,    86,    87,    91,    90</hex8>
			<hex8 id="18" mat="2">    23,    24,    28,    27,    87,    88,    92,    91</hex8>
			<hex8 id="19" mat="2">    25,    26,    30,    29,    89,    90,    94,    93</hex8>
			<hex8 id="20" mat="2">    26,    27,    31,    30,    90,    91,    95,    94</hex8>
<!-- ... 2860 like lines cut -->
		</Elements>
	</Geometry>
	<Boundary>
		<contact type="facet-to-facet sliding">
			<laugon>0</laugon>
			<tolerance>0.01</tolerance>
			<penalty>400</penalty>
			<two_pass>1</two_pass>
			<surface type="master">
				<quad4 id="1">     4,     8,    72,    68</quad4>
				<quad4 id="2">     8,    12,    76,    72</quad4>
				<quad4 id="3">    12,    16,    80,    76</quad4>
				<quad4 id="4">    16,    20,    84,    80</quad4>
				<quad4 id="5">    52,    56,   120,   116</quad4>
				<quad4 id="6">    56,    60,   124,   120</quad4>
				<quad4 id="7">    60,    64,   128,   124</quad4>
				<quad4 id="8">    64,     4,    68,   128</quad4>
				<quad4 id="9">    68,    72,   136,   132</quad4>
				<quad4 id="10">    72,    76,   140,   136</quad4>
				<quad4 id="11">    76,    80,   144,   140</quad4>
				<quad4 id="12">    80,    84,   148,   144</quad4>
				<quad4 id="13">   116,   120,   184,   180</quad4>
				<quad4 id="14">   120,   124,   188,   184</quad4>
				<quad4 id="15">   124,   128,   192,   188</quad4>
				<quad4 id="16">   128,    68,   132,   192</quad4>
				<quad4 id="17">   132,   136,   200,   196</quad4>
				<quad4 id="18">   136,   140,   204,   200</quad4>
				<quad4 id="19">   140,   144,   208,   204</quad4>
				<quad4 id="20">   144,   148,   212,   208</quad4>
<!-- ... 220 like lines cut -->
			</surface>
			<surface type="slave">
				<quad4 id="1">  2004,  2008,  2072,  2068</quad4>
				<quad4 id="2">  2008,  2012,  2076,  2072</quad4>
				<quad4 id="3">  2012,  2016,  2080,  2076</quad4>
				<quad4 id="4">  2016,  2020,  2084,  2080</quad4>
				<quad4 id="5">  2020,  2024,  2088,  2084</quad4>
				<quad4 id="6">  2024,  2028,  2092,  2088</quad4>
				<quad4 id="7">  2028,  2032,  2096,  2092</quad4>
				<quad4 id="8">  2032,  2036,  2100,  2096</quad4>
				<quad4 id="9">  2068,  2072,  2136,  2132</quad4>
				<quad4 id="10">  2072,  2076,  2140,  2136</quad4>
				<quad4 id="11">  2076,  2080,  2144,  2140</quad4>
				<quad4 id="12">  2080,  2084,  2148,  2144</quad4>
				<quad4 id="13">  2084,  2088,  2152,  2148</quad4>
				<quad4 id="14">  2088,  2092,  2156,  2152</quad4>
				<quad4 id="15">  2092,  2096,  2160,  2156</quad4>
				<quad4 id="16">  2096,  2100,  2164,  2160</quad4>
				<quad4 id="17">  2132,  2136,  2200,  2196</quad4>
				<quad4 id="18">  2136,  2140,  2204,  2200</quad4>
				<quad4 id="19">  2140,  2144,  2208,  2204</quad4>
				<quad4 id="20">  2144,  2148,  2212,  2208</quad4>
<!-- ... 220 like lines cut -->
			</surface>
		</contact>
	</Boundary>
	<Initial>
		<velocity>
			<node id="1985">-1.0000000e+000, 0.0000000e+000, 0.0000000e+000</node>
			<node id="1986">-1.0000000e+000, 0.0000000e+000, 0.0000000e+000</node>
			<node id="1987">-1.0000000e+000, 0.0000000e+000, 0.0000000e+000</node>
			<node id="1988">-1.0000000e+000, 0.0000000e+000, 0.0000000e+000</node>
			<node id="1989">-1.0000000e+000, 0.0000000e+000, 0.0000000e+000</node>
			<node id="1990">-1.0000000e+000, 0.0000000e+000, 0.0000000e+000</node>
			<node id="1991">-1.0000000e+000, 0.0000000e+000, 0.0000000e+000</node>
			<node id="1992">-1.0000000e+000, 0.0000000e+000, 0.0000000e+000</node>
			<node id="1993">-1.0000000e+000, 0.0000000e+000, 0.0000000e+000</node>
			<node id="1994">-1.0000000e+000, 0.0000000e+000, 0.0000000e+000</node>
			<node id="1995">-1.0000000e+000, 0.0000000e+000, 0.0000000e+000</node>
			<node id="1996">-1.0000000e+000, 0.0000000e+000, 0.0000000e+000</node>
			<node id="1997">-1.0000000e+000, 0.0000000e+000, 0.0000000e+000</node>
			<node id="1998">-1.0000000e+000, 0.0000000e+000, 0.0000000e+000</node>
			<node id="1999">-1.0000000e+000, 0.0000000e+000, 0.0000000e+000</node>
			<node id="2000">-1.0000000e+000, 0.0000000e+000, 0.0000000e+000</node>
			<node id="2001">-1.0000000e+000, 0.0000000e+000, 0.0000000e+000</node>
			<node id="2002">-1.0000000e+000, 0.0000000e+000, 0.0000000e+000</node>
			<node id="2003">-1.0000000e+000, 0.0000000e+000, 0.0000000e+000</node>
			<node id="2004">-1.0000000e+000, 0.0000000e+000, 0.0000000e+000</node>
<!-- ... 1964 like lines cut -->
		</velocity>
	</Initial>
	<Output>
		<plotfile type="febio"></plotfile>
	    <logfile>
			<element_data data="sy">2211</element_data>
		</logfile>
	</Output>
</febio_spec>
