<?xml version="1.0" encoding="ISO-8859-1"?>
<!--
Problem Description:
	Heat transfer problem as described in tutorial 7 in the PreView user's manual.
Main Features:
	Heat transfer
Secondary Features:
	Outputs temperature to the log file.
Materials:
	Isotropic Fourier
Degrees of Freedom: 462
Results:
	Steps Completed: 10
	Equilibrium Iterations: 0
	Right Hand Evaluations: 0
	Siffness Reformations: 10
	Other:
		Node 2 has a temperature of 854.33 at time t = 1.
Comments:
	
-->
<febio_spec version="1.2">
	<Module type="heat"/>
	<Control>
		<time_steps>10</time_steps>
		<step_size>0.1</step_size>
		<time_stepper>
			<dtmin>0.01</dtmin>
			<dtmax>0.1</dtmax>
			<max_retries>5</max_retries>
			<opt_iter>10</opt_iter>
		</time_stepper>
		<analysis type="static"/>
	</Control>
	<Globals>
		<Constants>
			<T>0</T>
			<R>0</R>
			<Fc>0</Fc>
		</Constants>
	</Globals>
	<Material>
		<material id="1" name="Material1" type="isotropic Fourier">
			<density>1</density>
			<k>0.4</k>
			<c>1</c>
		</material>
	</Material>
	<Geometry>
		<Nodes>
			<node id="1">-5.0000000e-002,-2.5000000e-002, 0.0000000e+000</node>
			<node id="2">-5.0000000e-002,-2.5000000e-002, 1.0000000e-002</node>
			<node id="3">-5.0000000e-002,-2.0000000e-002, 0.0000000e+000</node>
			<node id="4">-5.0000000e-002,-2.0000000e-002, 1.0000000e-002</node>
			<node id="5">-5.0000000e-002,-1.5000000e-002, 0.0000000e+000</node>
			<node id="6">-5.0000000e-002,-1.5000000e-002, 1.0000000e-002</node>
			<node id="7">-5.0000000e-002,-1.0000000e-002, 0.0000000e+000</node>
			<node id="8">-5.0000000e-002,-1.0000000e-002, 1.0000000e-002</node>
			<node id="9">-5.0000000e-002,-5.0000000e-003, 0.0000000e+000</node>
			<node id="10">-5.0000000e-002,-5.0000000e-003, 1.0000000e-002</node>
			<node id="11">-5.0000000e-002, 1.7347235e-018, 0.0000000e+000</node>
			<node id="12">-5.0000000e-002, 1.7347235e-018, 1.0000000e-002</node>
			<node id="13">-5.0000000e-002, 5.0000000e-003, 0.0000000e+000</node>
			<node id="14">-5.0000000e-002, 5.0000000e-003, 1.0000000e-002</node>
			<node id="15">-5.0000000e-002, 1.0000000e-002, 0.0000000e+000</node>
			<node id="16">-5.0000000e-002, 1.0000000e-002, 1.0000000e-002</node>
			<node id="17">-5.0000000e-002, 1.5000000e-002, 0.0000000e+000</node>
			<node id="18">-5.0000000e-002, 1.5000000e-002, 1.0000000e-002</node>
			<node id="19">-5.0000000e-002, 2.0000000e-002, 0.0000000e+000</node>
			<node id="20">-5.0000000e-002, 2.0000000e-002, 1.0000000e-002</node>
<!-- ... 442 like lines cut -->
		</Nodes>
		<Elements>
			<hex8 id="1" mat="1">     1,    23,    25,     3,     2,    24,    26,     4</hex8>
			<hex8 id="2" mat="1">     3,    25,    27,     5,     4,    26,    28,     6</hex8>
			<hex8 id="3" mat="1">     5,    27,    29,     7,     6,    28,    30,     8</hex8>
			<hex8 id="4" mat="1">     7,    29,    31,     9,     8,    30,    32,    10</hex8>
			<hex8 id="5" mat="1">     9,    31,    33,    11,    10,    32,    34,    12</hex8>
			<hex8 id="6" mat="1">    11,    33,    35,    13,    12,    34,    36,    14</hex8>
			<hex8 id="7" mat="1">    13,    35,    37,    15,    14,    36,    38,    16</hex8>
			<hex8 id="8" mat="1">    15,    37,    39,    17,    16,    38,    40,    18</hex8>
			<hex8 id="9" mat="1">    17,    39,    41,    19,    18,    40,    42,    20</hex8>
			<hex8 id="10" mat="1">    19,    41,    43,    21,    20,    42,    44,    22</hex8>
			<hex8 id="11" mat="1">    23,    45,    47,    25,    24,    46,    48,    26</hex8>
			<hex8 id="12" mat="1">    25,    47,    49,    27,    26,    48,    50,    28</hex8>
			<hex8 id="13" mat="1">    27,    49,    51,    29,    28,    50,    52,    30</hex8>
			<hex8 id="14" mat="1">    29,    51,    53,    31,    30,    52,    54,    32</hex8>
			<hex8 id="15" mat="1">    31,    53,    55,    33,    32,    54,    56,    34</hex8>
			<hex8 id="16" mat="1">    33,    55,    57,    35,    34,    56,    58,    36</hex8>
			<hex8 id="17" mat="1">    35,    57,    59,    37,    36,    58,    60,    38</hex8>
			<hex8 id="18" mat="1">    37,    59,    61,    39,    38,    60,    62,    40</hex8>
			<hex8 id="19" mat="1">    39,    61,    63,    41,    40,    62,    64,    42</hex8>
			<hex8 id="20" mat="1">    41,    63,    65,    43,    42,    64,    66,    44</hex8>
<!-- ... 180 like lines cut -->
		</Elements>
	</Geometry>
	<Boundary>
		<prescribe>
			<node id="441" bc="t" lc="4">1</node>
			<node id="442" bc="t" lc="4">1</node>
			<node id="443" bc="t" lc="4">1</node>
			<node id="444" bc="t" lc="4">1</node>
			<node id="445" bc="t" lc="4">1</node>
			<node id="446" bc="t" lc="4">1</node>
			<node id="447" bc="t" lc="4">1</node>
			<node id="448" bc="t" lc="4">1</node>
			<node id="449" bc="t" lc="4">1</node>
			<node id="450" bc="t" lc="4">1</node>
			<node id="451" bc="t" lc="4">1</node>
			<node id="452" bc="t" lc="4">1</node>
			<node id="453" bc="t" lc="4">1</node>
			<node id="454" bc="t" lc="4">1</node>
			<node id="455" bc="t" lc="4">1</node>
			<node id="456" bc="t" lc="4">1</node>
			<node id="457" bc="t" lc="4">1</node>
			<node id="458" bc="t" lc="4">1</node>
			<node id="459" bc="t" lc="4">1</node>
			<node id="460" bc="t" lc="4">1</node>
			<node id="461" bc="t" lc="4">1</node>
			<node id="462" bc="t" lc="4">1</node>
		</prescribe>
	</Boundary>
	<Loads>
		<heatflux>
			<quad4 id="1" lc="2" scale="1">    21,    19,    20,    22</quad4>
			<quad4 id="2" lc="2" scale="1">    19,    17,    18,    20</quad4>
			<quad4 id="3" lc="2" scale="1">    17,    15,    16,    18</quad4>
			<quad4 id="4" lc="2" scale="1">    15,    13,    14,    16</quad4>
			<quad4 id="5" lc="2" scale="1">    13,    11,    12,    14</quad4>
			<quad4 id="6" lc="2" scale="1">    11,     9,    10,    12</quad4>
			<quad4 id="7" lc="2" scale="1">     9,     7,     8,    10</quad4>
			<quad4 id="8" lc="2" scale="1">     7,     5,     6,     8</quad4>
			<quad4 id="9" lc="2" scale="1">     5,     3,     4,     6</quad4>
			<quad4 id="10" lc="2" scale="1">     3,     1,     2,     4</quad4>
		</heatflux>
		<convective_heatflux>
			<quad4 id="1" lc="3" scale="25" hc="60">   461,   439,   440,   462</quad4>
			<quad4 id="2" lc="3" scale="25" hc="60">   439,   417,   418,   440</quad4>
			<quad4 id="3" lc="3" scale="25" hc="60">   417,   395,   396,   418</quad4>
			<quad4 id="4" lc="3" scale="25" hc="60">   395,   373,   374,   396</quad4>
			<quad4 id="5" lc="3" scale="25" hc="60">   373,   351,   352,   374</quad4>
			<quad4 id="6" lc="3" scale="25" hc="60">   351,   329,   330,   352</quad4>
			<quad4 id="7" lc="3" scale="25" hc="60">   329,   307,   308,   330</quad4>
			<quad4 id="8" lc="3" scale="25" hc="60">   307,   285,   286,   308</quad4>
			<quad4 id="9" lc="3" scale="25" hc="60">   285,   263,   264,   286</quad4>
			<quad4 id="10" lc="3" scale="25" hc="60">   263,   241,   242,   264</quad4>
			<quad4 id="11" lc="3" scale="25" hc="60">   241,   219,   220,   242</quad4>
			<quad4 id="12" lc="3" scale="25" hc="60">   219,   197,   198,   220</quad4>
			<quad4 id="13" lc="3" scale="25" hc="60">   197,   175,   176,   198</quad4>
			<quad4 id="14" lc="3" scale="25" hc="60">   175,   153,   154,   176</quad4>
			<quad4 id="15" lc="3" scale="25" hc="60">   153,   131,   132,   154</quad4>
			<quad4 id="16" lc="3" scale="25" hc="60">   131,   109,   110,   132</quad4>
			<quad4 id="17" lc="3" scale="25" hc="60">   109,    87,    88,   110</quad4>
			<quad4 id="18" lc="3" scale="25" hc="60">    87,    65,    66,    88</quad4>
			<quad4 id="19" lc="3" scale="25" hc="60">    65,    43,    44,    66</quad4>
			<quad4 id="20" lc="3" scale="25" hc="60">    43,    21,    22,    44</quad4>
		</convective_heatflux>
		<heat_source>
			<Q lc="1">135300</Q>
		</heat_source>
	</Loads>
	<LoadData>
		<loadcurve id="1" type="smooth">
			<loadpoint>0,0</loadpoint>
			<loadpoint>1,1</loadpoint>
		</loadcurve>
		<loadcurve id="2" type="smooth">
			<loadpoint>0,0</loadpoint>
			<loadpoint>1,3500</loadpoint>
		</loadcurve>
		<loadcurve id="3" type="smooth">
			<loadpoint>0,0</loadpoint>
			<loadpoint>1,1</loadpoint>
		</loadcurve>
		<loadcurve id="4" type="smooth">
			<loadpoint>0,0</loadpoint>
			<loadpoint>1,25</loadpoint>
		</loadcurve>
	</LoadData>
	<Output>
		<plotfile type="febio">
			<var type="temperature"/>
			<var type="heat flux"/>
		</plotfile>
		<logfile>
			<node_data data="T">2</node_data>
		</logfile>
	</Output>
</febio_spec>
