<?xml version="1.0" encoding="ISO-8859-1"?>
<!--
Problem Description:
	A viscoelastic element has a prescribed x-diplacement of 0.0005 at time t=1.
Main Features:
	Viscoelasticity
Secondary Features:
	
Materials:
	Neo-Hookean
	Viscoelastic
Degrees of Freedom: 12
Results:
	Steps Completed: 25
	Equilibrium Iterations: 30
	Right Hand Evaluations: 55
	Siffness Reformations: 25
	Other:
		The element has a maximum displacement of 0.002 at time t=0.2127.
Comments:
	
-->
<febio_spec version="1.2">
	<Control>
		<title>Viscoelasticity</title>
		<time_steps>5000</time_steps>
		<step_size>0.0002</step_size>
		<max_refs>15</max_refs>
		<max_ups>10</max_ups>
		<dtol>0.001</dtol>
		<etol>0.01</etol>
		<rtol>0</rtol>
		<lstol>0.9</lstol>
		<time_stepper>
			<dtmin>0.005</dtmin>
			<dtmax>0.05</dtmax>
			<max_retries>5</max_retries>
			<opt_iter>10</opt_iter>
		</time_stepper>
		<plot_level>PLOT_DEFAULT</plot_level>
	</Control>
	<Material>
		<material id="1" name="Material 1" type="viscoelastic">
			<t1>0.01</t1>
			<g1>0.95</g1>
			<elastic id="2" name="Material 2" type="neo-Hookean">
				<E>1</E>
				<v>0.0</v>
			</elastic>
		</material>
	</Material>
	<Geometry>
		<Nodes>
			<node id="1">-5.0000000e-001,-5.0000000e-001, 0.0000000e+000</node>
			<node id="2">-5.0000000e-001,-5.0000000e-001, 1.0000000e+000</node>
			<node id="3">-5.0000000e-001, 5.0000000e-001, 0.0000000e+000</node>
			<node id="4">-5.0000000e-001, 5.0000000e-001, 1.0000000e+000</node>
			<node id="5"> 5.0000000e-001,-5.0000000e-001, 0.0000000e+000</node>
			<node id="6"> 5.0000000e-001,-5.0000000e-001, 1.0000000e+000</node>
			<node id="7"> 5.0000000e-001, 5.0000000e-001, 0.0000000e+000</node>
			<node id="8"> 5.0000000e-001, 5.0000000e-001, 1.0000000e+000</node>
		</Nodes>
		<Elements>
			<hex8 id="1" mat="1">     1,     5,     7,     3,     2,     6,     8,     4</hex8>
		</Elements>
	</Geometry>
	<Boundary>
		<fix>
			<node id="1" bc="xyz"></node>
			<node id="2" bc="xy"></node>
			<node id="3" bc="xz"></node>
			<node id="4" bc="x"></node>
			<node id="5" bc="yz"></node>
			<node id="6" bc="y"></node>
			<node id="7" bc="z"></node>
		</fix>
	</Boundary>
	<Loads>
		<force>
			<node id="5" bc="x" lc="1">1</node>
			<node id="6" bc="x" lc="1">1</node>
			<node id="7" bc="x" lc="1">1</node>
			<node id="8" bc="x" lc="1">1</node>
		</force>
	</Loads>
	<LoadData>
		<loadcurve id="1">
			<loadpoint>0.0,0.0005</loadpoint>
			<loadpoint>1.0,0.0005</loadpoint>
		</loadcurve>
	</LoadData>
	<Output>
		<plotfile type="febio"></plotfile>
        <logfile>
           <node_data data="ux">7</node_data>
        </logfile>
    </Output>
</febio_spec>
