<?xml version="1.0" encoding="ISO-8859-1"?>
<!--
Problem Description:
	A viscoelastic 10x5x5 element block has a prescribed x-displacement of 0.005 at time t=1.
Main Features:
	Viscoelasticity
Secondary Features:
	
Materials:
	Neo-Hookean
	Viscoelastic
Degrees of Freedom: 1008
Results:
	Steps Completed: 14
	Equilibrium Iterations: 19
	Right Hand Evaluations: 33
	Siffness Reformations: 14
	Other:
		The block has a maximum x-displacement of 9.55e-3 at time t=0.2311
Comments:
	
-->
<febio_spec version="1.2">
	<Control>
		<title>Viscoelastic Block</title>
		<time_steps>50</time_steps>
		<step_size>0.02</step_size>
		<max_refs>15</max_refs>
		<max_ups>10</max_ups>
		<dtol>0.001</dtol>
		<etol>0.01</etol>
		<rtol>0</rtol>
		<lstol>0.9</lstol>
		<pressure_stiffness>1</pressure_stiffness>
		<time_stepper>
			<dtmin>0.01</dtmin>
			<dtmax>0.1</dtmax>
			<max_retries>5</max_retries>
			<opt_iter>10</opt_iter>
		</time_stepper>
		<plot_level>PLOT_DEFAULT</plot_level>
	</Control>
	<Material>
		<material id="1" name="Material 1" type="viscoelastic">
			<t1>0.01</t1>
			<g1>0.9</g1>
			<elastic id="2" name="Material 2" type="neo-Hookean">
				<E>1</E>
				<v>0.4</v>
			</elastic>
		</material>
	</Material>
	<Geometry>
		<Nodes>
			<node id="1">-1.0000000e+000,-5.0000000e-001, 0.0000000e+000</node>
			<node id="2">-1.0000000e+000,-5.0000000e-001, 2.0000000e-001</node>
			<node id="3">-1.0000000e+000,-5.0000000e-001, 4.0000000e-001</node>
			<node id="4">-1.0000000e+000,-5.0000000e-001, 6.0000000e-001</node>
			<node id="5">-1.0000000e+000,-5.0000000e-001, 8.0000000e-001</node>
			<node id="6">-1.0000000e+000,-5.0000000e-001, 1.0000000e+000</node>
			<node id="7">-1.0000000e+000,-3.0000000e-001, 0.0000000e+000</node>
			<node id="8">-1.0000000e+000,-3.0000000e-001, 2.0000000e-001</node>
			<node id="9">-1.0000000e+000,-3.0000000e-001, 4.0000000e-001</node>
			<node id="10">-1.0000000e+000,-3.0000000e-001, 6.0000000e-001</node>
			<node id="11">-1.0000000e+000,-3.0000000e-001, 8.0000000e-001</node>
			<node id="12">-1.0000000e+000,-3.0000000e-001, 1.0000000e+000</node>
			<node id="13">-1.0000000e+000,-1.0000000e-001, 0.0000000e+000</node>
			<node id="14">-1.0000000e+000,-1.0000000e-001, 2.0000000e-001</node>
			<node id="15">-1.0000000e+000,-1.0000000e-001, 4.0000000e-001</node>
			<node id="16">-1.0000000e+000,-1.0000000e-001, 6.0000000e-001</node>
			<node id="17">-1.0000000e+000,-1.0000000e-001, 8.0000000e-001</node>
			<node id="18">-1.0000000e+000,-1.0000000e-001, 1.0000000e+000</node>
			<node id="19">-1.0000000e+000, 1.0000000e-001, 0.0000000e+000</node>
			<node id="20">-1.0000000e+000, 1.0000000e-001, 2.0000000e-001</node>
<!-- ... 376 like lines cut -->
		</Nodes>
		<Elements>
			<hex8 id="1" mat="1">     1,    37,    43,     7,     2,    38,    44,     8</hex8>
			<hex8 id="2" mat="1">     2,    38,    44,     8,     3,    39,    45,     9</hex8>
			<hex8 id="3" mat="1">     3,    39,    45,     9,     4,    40,    46,    10</hex8>
			<hex8 id="4" mat="1">     4,    40,    46,    10,     5,    41,    47,    11</hex8>
			<hex8 id="5" mat="1">     5,    41,    47,    11,     6,    42,    48,    12</hex8>
			<hex8 id="6" mat="1">     7,    43,    49,    13,     8,    44,    50,    14</hex8>
			<hex8 id="7" mat="1">     8,    44,    50,    14,     9,    45,    51,    15</hex8>
			<hex8 id="8" mat="1">     9,    45,    51,    15,    10,    46,    52,    16</hex8>
			<hex8 id="9" mat="1">    10,    46,    52,    16,    11,    47,    53,    17</hex8>
			<hex8 id="10" mat="1">    11,    47,    53,    17,    12,    48,    54,    18</hex8>
			<hex8 id="11" mat="1">    13,    49,    55,    19,    14,    50,    56,    20</hex8>
			<hex8 id="12" mat="1">    14,    50,    56,    20,    15,    51,    57,    21</hex8>
			<hex8 id="13" mat="1">    15,    51,    57,    21,    16,    52,    58,    22</hex8>
			<hex8 id="14" mat="1">    16,    52,    58,    22,    17,    53,    59,    23</hex8>
			<hex8 id="15" mat="1">    17,    53,    59,    23,    18,    54,    60,    24</hex8>
			<hex8 id="16" mat="1">    19,    55,    61,    25,    20,    56,    62,    26</hex8>
			<hex8 id="17" mat="1">    20,    56,    62,    26,    21,    57,    63,    27</hex8>
			<hex8 id="18" mat="1">    21,    57,    63,    27,    22,    58,    64,    28</hex8>
			<hex8 id="19" mat="1">    22,    58,    64,    28,    23,    59,    65,    29</hex8>
			<hex8 id="20" mat="1">    23,    59,    65,    29,    24,    60,    66,    30</hex8>
<!-- ... 230 like lines cut -->
		</Elements>
	</Geometry>
	<Boundary>
		<fix>
			<node id="1" bc="xyz"></node>
			<node id="2" bc="xyz"></node>
			<node id="3" bc="xyz"></node>
			<node id="4" bc="xyz"></node>
			<node id="5" bc="xyz"></node>
			<node id="6" bc="xyz"></node>
			<node id="7" bc="xyz"></node>
			<node id="8" bc="xyz"></node>
			<node id="9" bc="xyz"></node>
			<node id="10" bc="xyz"></node>
			<node id="11" bc="xyz"></node>
			<node id="12" bc="xyz"></node>
			<node id="13" bc="xyz"></node>
			<node id="14" bc="xyz"></node>
			<node id="15" bc="xyz"></node>
			<node id="16" bc="xyz"></node>
			<node id="17" bc="xyz"></node>
			<node id="18" bc="xyz"></node>
			<node id="19" bc="xyz"></node>
			<node id="20" bc="xyz"></node>
<!-- ... 16 like lines cut -->
			<node id="361" bc="yz"></node>
			<node id="362" bc="yz"></node>
			<node id="363" bc="yz"></node>
			<node id="364" bc="yz"></node>
			<node id="365" bc="yz"></node>
			<node id="366" bc="yz"></node>
			<node id="367" bc="yz"></node>
			<node id="368" bc="yz"></node>
			<node id="369" bc="yz"></node>
			<node id="370" bc="yz"></node>
			<node id="371" bc="yz"></node>
			<node id="372" bc="yz"></node>
			<node id="373" bc="yz"></node>
			<node id="374" bc="yz"></node>
			<node id="375" bc="yz"></node>
			<node id="376" bc="yz"></node>
			<node id="377" bc="yz"></node>
			<node id="378" bc="yz"></node>
			<node id="379" bc="yz"></node>
			<node id="380" bc="yz"></node>
<!-- ... 16 like lines cut -->
		</fix>
	</Boundary>
	<Loads>
		<pressure>
			<quad4 id="1" lc="1" scale="1">   361,   367,   368,   362</quad4>
			<quad4 id="2" lc="1" scale="1">   362,   368,   369,   363</quad4>
			<quad4 id="3" lc="1" scale="1">   363,   369,   370,   364</quad4>
			<quad4 id="4" lc="1" scale="1">   364,   370,   371,   365</quad4>
			<quad4 id="5" lc="1" scale="1">   365,   371,   372,   366</quad4>
			<quad4 id="6" lc="1" scale="1">   367,   373,   374,   368</quad4>
			<quad4 id="7" lc="1" scale="1">   368,   374,   375,   369</quad4>
			<quad4 id="8" lc="1" scale="1">   369,   375,   376,   370</quad4>
			<quad4 id="9" lc="1" scale="1">   370,   376,   377,   371</quad4>
			<quad4 id="10" lc="1" scale="1">   371,   377,   378,   372</quad4>
			<quad4 id="11" lc="1" scale="1">   373,   379,   380,   374</quad4>
			<quad4 id="12" lc="1" scale="1">   374,   380,   381,   375</quad4>
			<quad4 id="13" lc="1" scale="1">   375,   381,   382,   376</quad4>
			<quad4 id="14" lc="1" scale="1">   376,   382,   383,   377</quad4>
			<quad4 id="15" lc="1" scale="1">   377,   383,   384,   378</quad4>
			<quad4 id="16" lc="1" scale="1">   379,   385,   386,   380</quad4>
			<quad4 id="17" lc="1" scale="1">   380,   386,   387,   381</quad4>
			<quad4 id="18" lc="1" scale="1">   381,   387,   388,   382</quad4>
			<quad4 id="19" lc="1" scale="1">   382,   388,   389,   383</quad4>
			<quad4 id="20" lc="1" scale="1">   383,   389,   390,   384</quad4>
<!-- ... 5 like lines cut -->
		</pressure>
	</Loads>
	<LoadData>
		<loadcurve id="1">
			<loadpoint>0,0.005</loadpoint>
			<loadpoint>1,0.005</loadpoint>
		</loadcurve>
	</LoadData>
	<Output>
		<plotfile type="febio"></plotfile>
        <logfile>
			<element_data data="sy">130</element_data>
		</logfile>	
	</Output>
</febio_spec>
