<?xml version="1.0" encoding="ISO-8859-1"?>
<!--
Problem Description:
	Modeling of ligament cyclic Stress Relaxation.
Main Features:
	Uncoupled viscoelasticity
	Fiber material
Secondary Features:
	Cyclic deformation
	Must points
Materials:
	Trans-Iso Mooney-Rivlin
	Uncoupled Viscoelastic
Degrees of Freedom: 540
Results:
	Steps Completed: 199
	Equilibrium Iterations: 571
	Right Hand Evaluations: 770
	Siffness Reformations: 199
	Other:
		See the stress-strain curve in ma07.jpg
Comments:
	This problem is from the article "Finite element implementation of anisotropic
	quasilinear viscoelasticity using a discrete spectrum approximation", Puso and Weiss,
	Journal of Biomechanical Engineering, 1997
-->
<febio_spec version="1.2">
	<Module type="solid"/>
	<Control>
		<title>Viscoelastic Cyclic Stress</title>
		<time_steps>200</time_steps>
		<step_size>.5</step_size>
		<max_refs>15</max_refs>
		<max_ups>10</max_ups>
		<dtol>0.001</dtol>
		<etol>0.01</etol>
		<rtol>0</rtol>
		<lstol>0.9</lstol>
		<time_stepper>
			<dtmin>0.01</dtmin>
			<dtmax lc="1"></dtmax>
			<max_retries>5</max_retries>
			<opt_iter>100</opt_iter>
		</time_stepper>
	</Control>
	<Material>
		<material id="1" name="Material1" type="uncoupled viscoelastic">
			<g1>0.288</g1>
			<g2>0.288</g2>
			<g3>0.288</g3>
			<g4>0.288</g4>
			<g5>0.288</g5>
			<t1>0.01</t1>
			<t2>0.1</t2>
			<t3>1</t3>
			<t4>10</t4>
			<t5>100</t5>
			<elastic id="2" name="Material2" type="trans iso Mooney-Rivlin">
				<fiber type="vector"> 0.0000000e+000, 1.0000000e+000, 0.0000000e+000</fiber>
				<c1>47.93</c1>
				<c2>-40.46</c2>
				<c3>2.36</c3>
				<c4>76.9</c4>
				<c5>1584</c5>
				<k>5000</k>
				<lam_max>1.03</lam_max>
			</elastic>
		</material>
	</Material>
	<Geometry>
		<Nodes>
			<node id="1">-5.0000000e-001,-5.0000000e-001, 0.0000000e+000</node>
			<node id="2">-5.0000000e-001,-5.0000000e-001, 2.0000000e-001</node>
			<node id="3">-5.0000000e-001,-5.0000000e-001, 4.0000000e-001</node>
			<node id="4">-5.0000000e-001,-5.0000000e-001, 6.0000000e-001</node>
			<node id="5">-5.0000000e-001,-5.0000000e-001, 8.0000000e-001</node>
			<node id="6">-5.0000000e-001,-5.0000000e-001, 1.0000000e+000</node>
			<node id="7">-5.0000000e-001,-3.0000000e-001, 0.0000000e+000</node>
			<node id="8">-5.0000000e-001,-3.0000000e-001, 2.0000000e-001</node>
			<node id="9">-5.0000000e-001,-3.0000000e-001, 4.0000000e-001</node>
			<node id="10">-5.0000000e-001,-3.0000000e-001, 6.0000000e-001</node>
			<node id="11">-5.0000000e-001,-3.0000000e-001, 8.0000000e-001</node>
			<node id="12">-5.0000000e-001,-3.0000000e-001, 1.0000000e+000</node>
			<node id="13">-5.0000000e-001,-1.0000000e-001, 0.0000000e+000</node>
			<node id="14">-5.0000000e-001,-1.0000000e-001, 2.0000000e-001</node>
			<node id="15">-5.0000000e-001,-1.0000000e-001, 4.0000000e-001</node>
			<node id="16">-5.0000000e-001,-1.0000000e-001, 6.0000000e-001</node>
			<node id="17">-5.0000000e-001,-1.0000000e-001, 8.0000000e-001</node>
			<node id="18">-5.0000000e-001,-1.0000000e-001, 1.0000000e+000</node>
			<node id="19">-5.0000000e-001, 1.0000000e-001, 0.0000000e+000</node>
			<node id="20">-5.0000000e-001, 1.0000000e-001, 2.0000000e-001</node>
<!-- ... 196 like lines cut -->
		</Nodes>
		<Elements>
			<hex8 id="1" mat="1">     1,    37,    43,     7,     2,    38,    44,     8</hex8>
			<hex8 id="2" mat="1">     2,    38,    44,     8,     3,    39,    45,     9</hex8>
			<hex8 id="3" mat="1">     3,    39,    45,     9,     4,    40,    46,    10</hex8>
			<hex8 id="4" mat="1">     4,    40,    46,    10,     5,    41,    47,    11</hex8>
			<hex8 id="5" mat="1">     5,    41,    47,    11,     6,    42,    48,    12</hex8>
			<hex8 id="6" mat="1">     7,    43,    49,    13,     8,    44,    50,    14</hex8>
			<hex8 id="7" mat="1">     8,    44,    50,    14,     9,    45,    51,    15</hex8>
			<hex8 id="8" mat="1">     9,    45,    51,    15,    10,    46,    52,    16</hex8>
			<hex8 id="9" mat="1">    10,    46,    52,    16,    11,    47,    53,    17</hex8>
			<hex8 id="10" mat="1">    11,    47,    53,    17,    12,    48,    54,    18</hex8>
			<hex8 id="11" mat="1">    13,    49,    55,    19,    14,    50,    56,    20</hex8>
			<hex8 id="12" mat="1">    14,    50,    56,    20,    15,    51,    57,    21</hex8>
			<hex8 id="13" mat="1">    15,    51,    57,    21,    16,    52,    58,    22</hex8>
			<hex8 id="14" mat="1">    16,    52,    58,    22,    17,    53,    59,    23</hex8>
			<hex8 id="15" mat="1">    17,    53,    59,    23,    18,    54,    60,    24</hex8>
			<hex8 id="16" mat="1">    19,    55,    61,    25,    20,    56,    62,    26</hex8>
			<hex8 id="17" mat="1">    20,    56,    62,    26,    21,    57,    63,    27</hex8>
			<hex8 id="18" mat="1">    21,    57,    63,    27,    22,    58,    64,    28</hex8>
			<hex8 id="19" mat="1">    22,    58,    64,    28,    23,    59,    65,    29</hex8>
			<hex8 id="20" mat="1">    23,    59,    65,    29,    24,    60,    66,    30</hex8>
<!-- ... 105 like lines cut -->
		</Elements>
	</Geometry>
	<Boundary>
		<fix>
			<node id="1" bc="y"/>
			<node id="2" bc="y"/>
			<node id="3" bc="y"/>
			<node id="4" bc="y"/>
			<node id="5" bc="y"/>
			<node id="6" bc="y"/>
			<node id="37" bc="y"/>
			<node id="38" bc="y"/>
			<node id="39" bc="y"/>
			<node id="40" bc="y"/>
			<node id="41" bc="y"/>
			<node id="42" bc="y"/>
			<node id="73" bc="y"/>
			<node id="74" bc="y"/>
			<node id="75" bc="y"/>
			<node id="76" bc="y"/>
			<node id="77" bc="y"/>
			<node id="78" bc="y"/>
			<node id="109" bc="y"/>
			<node id="110" bc="y"/>
<!-- ... 16 like lines cut -->
		</fix>
		<fix>
			<node id="1" bc="x"/>
			<node id="2" bc="x"/>
			<node id="3" bc="x"/>
			<node id="4" bc="x"/>
			<node id="5" bc="x"/>
			<node id="6" bc="x"/>
			<node id="7" bc="x"/>
			<node id="8" bc="x"/>
			<node id="9" bc="x"/>
			<node id="10" bc="x"/>
			<node id="11" bc="x"/>
			<node id="12" bc="x"/>
			<node id="13" bc="x"/>
			<node id="14" bc="x"/>
			<node id="15" bc="x"/>
			<node id="16" bc="x"/>
			<node id="17" bc="x"/>
			<node id="18" bc="x"/>
			<node id="19" bc="x"/>
			<node id="20" bc="x"/>
<!-- ... 16 like lines cut -->
		</fix>
		<fix>
			<node id="1" bc="z"/>
			<node id="7" bc="z"/>
			<node id="13" bc="z"/>
			<node id="19" bc="z"/>
			<node id="25" bc="z"/>
			<node id="31" bc="z"/>
			<node id="37" bc="z"/>
			<node id="43" bc="z"/>
			<node id="49" bc="z"/>
			<node id="55" bc="z"/>
			<node id="61" bc="z"/>
			<node id="67" bc="z"/>
			<node id="73" bc="z"/>
			<node id="79" bc="z"/>
			<node id="85" bc="z"/>
			<node id="91" bc="z"/>
			<node id="97" bc="z"/>
			<node id="103" bc="z"/>
			<node id="109" bc="z"/>
			<node id="115" bc="z"/>
<!-- ... 16 like lines cut -->
		</fix>
		<prescribe>
			<node id="31" bc="y" lc="2">1</node>
			<node id="32" bc="y" lc="2">1</node>
			<node id="33" bc="y" lc="2">1</node>
			<node id="34" bc="y" lc="2">1</node>
			<node id="35" bc="y" lc="2">1</node>
			<node id="36" bc="y" lc="2">1</node>
			<node id="67" bc="y" lc="2">1</node>
			<node id="68" bc="y" lc="2">1</node>
			<node id="69" bc="y" lc="2">1</node>
			<node id="70" bc="y" lc="2">1</node>
			<node id="71" bc="y" lc="2">1</node>
			<node id="72" bc="y" lc="2">1</node>
			<node id="103" bc="y" lc="2">1</node>
			<node id="104" bc="y" lc="2">1</node>
			<node id="105" bc="y" lc="2">1</node>
			<node id="106" bc="y" lc="2">1</node>
			<node id="107" bc="y" lc="2">1</node>
			<node id="108" bc="y" lc="2">1</node>
			<node id="139" bc="y" lc="2">1</node>
			<node id="140" bc="y" lc="2">1</node>
<!-- ... 16 like lines cut -->
		</prescribe>
	</Boundary>
	<LoadData>
		<loadcurve id="1" type="step">
			<loadpoint>0,0.5</loadpoint>
			<loadpoint>5,0.5</loadpoint>
			<loadpoint>10,0.5</loadpoint>
			<loadpoint>15,0.5</loadpoint>
			<loadpoint>20,0.5</loadpoint>
			<loadpoint>25,0.5</loadpoint>
			<loadpoint>30,0.5</loadpoint>
			<loadpoint>35,0.5</loadpoint>
			<loadpoint>40,0.5</loadpoint>
			<loadpoint>45,0.5</loadpoint>
			<loadpoint>50,0.5</loadpoint>
			<loadpoint>55,0.5</loadpoint>
			<loadpoint>60,0.5</loadpoint>
			<loadpoint>65,0.5</loadpoint>
			<loadpoint>70,0.5</loadpoint>
			<loadpoint>75,0.5</loadpoint>
			<loadpoint>80,0.5</loadpoint>
			<loadpoint>85,0.5</loadpoint>
			<loadpoint>90,0.5</loadpoint>
			<loadpoint>95,0.5</loadpoint>
			<loadpoint>100,0.5</loadpoint>
		</loadcurve>
		<loadcurve id="2">
			<loadpoint>0,0</loadpoint>
			<loadpoint>5,0.03</loadpoint>
			<loadpoint>10,0.015</loadpoint>
			<loadpoint>15,0.03</loadpoint>
			<loadpoint>20,0.015</loadpoint>
			<loadpoint>25,0.03</loadpoint>
			<loadpoint>30,0.015</loadpoint>
			<loadpoint>35,0.03</loadpoint>
			<loadpoint>40,0.015</loadpoint>
			<loadpoint>45,0.03</loadpoint>
			<loadpoint>50,0.015</loadpoint>
			<loadpoint>55,0.03</loadpoint>
			<loadpoint>60,0.015</loadpoint>
			<loadpoint>65,0.03</loadpoint>
			<loadpoint>70,0.015</loadpoint>
			<loadpoint>75,0.03</loadpoint>
			<loadpoint>80,0.015</loadpoint>
			<loadpoint>85,0.03</loadpoint>
			<loadpoint>90,0.015</loadpoint>
			<loadpoint>95,0.03</loadpoint>
			<loadpoint>100,0.015</loadpoint>
		</loadcurve>
	</LoadData>
	<Output>
		<plotfile type="febio"></plotfile>
        <logfile>
         <element_data data="s3">73</element_data>
        </logfile>	
	</Output>
</febio_spec>
