<?xml version="1.0" encoding="ISO-8859-1"?>
<!--
Problem Description:
	An elastic cylindrical section with quarter symmetry is subject to a pressure
	that varies between 0 at time t=0 to 0.5 at time t=1.
Main Features:
	Pressure
Secondary Features:
	
Materials:
	Holmes-Mow
Degrees of Freedom: 672
Results:
	Steps Completed: 10
	Equilibrium Iterations: 43
	Right Hand Evaluations: 58
	Siffness Reformations: 43
	Other:
		The cylinder has a maximum Effective strain of 1.95 at time t=1.
Comments:
	This problem can be compared to ma10, which uses a poroelastic material.
-->
<febio_spec version="1.2">
	<Control>
		<title>Inflated Tube - Elastic</title>
		<time_steps>10</time_steps>
		<step_size>0.1</step_size>
		<max_refs>20</max_refs>
		<max_ups>0</max_ups>
		<dtol>0.001</dtol>
		<etol>0.01</etol>
		<rtol>0</rtol>
		<lstol>0.9</lstol>
		<time_stepper>
			<dtmin>0.01</dtmin>
			<dtmax lc="1"></dtmax>
			<max_retries>5</max_retries>
			<opt_iter>10</opt_iter>
		</time_stepper>
	</Control>
	<Material>
		<material id="1" name="Solid Matrix" type="Holmes-Mow">
			<density>1</density>
			<E>1</E>
			<v>0</v>
			<beta>0.5</beta>
		</material>
	</Material>
	<Geometry>
		<Nodes>
			<node id="1">  5.0000000e-01,  0.0000000e+00,  0.0000000e+00</node>
			<node id="2">  5.0963069e-01,  0.0000000e+00,  0.0000000e+00</node>
			<node id="3">  5.2118752e-01,  0.0000000e+00,  0.0000000e+00</node>
			<node id="4">  5.3505571e-01,  0.0000000e+00,  0.0000000e+00</node>
			<node id="5">  5.5169754e-01,  0.0000000e+00,  0.0000000e+00</node>
			<node id="6">  5.7166774e-01,  0.0000000e+00,  0.0000000e+00</node>
			<node id="7">  5.9563197e-01,  0.0000000e+00,  0.0000000e+00</node>
			<node id="8">  6.2438906e-01,  0.0000000e+00,  0.0000000e+00</node>
			<node id="9">  6.5889756e-01,  0.0000000e+00,  0.0000000e+00</node>
			<node id="10">  7.0030776e-01,  0.0000000e+00,  0.0000000e+00</node>
			<node id="11">  7.5000000e-01,  0.0000000e+00,  0.0000000e+00</node>
			<node id="12">  7.9969224e-01,  0.0000000e+00,  0.0000000e+00</node>
			<node id="13">  8.4110244e-01,  0.0000000e+00,  0.0000000e+00</node>
			<node id="14">  8.7561094e-01,  0.0000000e+00,  0.0000000e+00</node>
			<node id="15">  9.0436803e-01,  0.0000000e+00,  0.0000000e+00</node>
			<node id="16">  9.2833226e-01,  0.0000000e+00,  0.0000000e+00</node>
			<node id="17">  9.4830246e-01,  0.0000000e+00,  0.0000000e+00</node>
			<node id="18">  9.6494429e-01,  0.0000000e+00,  0.0000000e+00</node>
			<node id="19">  9.7881248e-01,  0.0000000e+00,  0.0000000e+00</node>
			<node id="20">  9.9036931e-01,  0.0000000e+00,  0.0000000e+00</node>
<!-- ... 358 like lines cut -->
		</Nodes>
		<Elements>
			<hex8 id="1" mat="1">     1,     2,    23,    22,   190,   191,   212,   211</hex8>
			<hex8 id="2" mat="1">     2,     3,    24,    23,   191,   192,   213,   212</hex8>
			<hex8 id="3" mat="1">     3,     4,    25,    24,   192,   193,   214,   213</hex8>
			<hex8 id="4" mat="1">     4,     5,    26,    25,   193,   194,   215,   214</hex8>
			<hex8 id="5" mat="1">     5,     6,    27,    26,   194,   195,   216,   215</hex8>
			<hex8 id="6" mat="1">     6,     7,    28,    27,   195,   196,   217,   216</hex8>
			<hex8 id="7" mat="1">     7,     8,    29,    28,   196,   197,   218,   217</hex8>
			<hex8 id="8" mat="1">     8,     9,    30,    29,   197,   198,   219,   218</hex8>
			<hex8 id="9" mat="1">     9,    10,    31,    30,   198,   199,   220,   219</hex8>
			<hex8 id="10" mat="1">    10,    11,    32,    31,   199,   200,   221,   220</hex8>
			<hex8 id="11" mat="1">    11,    12,    33,    32,   200,   201,   222,   221</hex8>
			<hex8 id="12" mat="1">    12,    13,    34,    33,   201,   202,   223,   222</hex8>
			<hex8 id="13" mat="1">    13,    14,    35,    34,   202,   203,   224,   223</hex8>
			<hex8 id="14" mat="1">    14,    15,    36,    35,   203,   204,   225,   224</hex8>
			<hex8 id="15" mat="1">    15,    16,    37,    36,   204,   205,   226,   225</hex8>
			<hex8 id="16" mat="1">    16,    17,    38,    37,   205,   206,   227,   226</hex8>
			<hex8 id="17" mat="1">    17,    18,    39,    38,   206,   207,   228,   227</hex8>
			<hex8 id="18" mat="1">    18,    19,    40,    39,   207,   208,   229,   228</hex8>
			<hex8 id="19" mat="1">    19,    20,    41,    40,   208,   209,   230,   229</hex8>
			<hex8 id="20" mat="1">    20,    21,    42,    41,   209,   210,   231,   230</hex8>
<!-- ... 140 like lines cut -->
		</Elements>
	</Geometry>
	<Boundary>
		<fix>
			<node id="169" bc="x"></node>
			<node id="170" bc="x"></node>
			<node id="171" bc="x"></node>
			<node id="172" bc="x"></node>
			<node id="173" bc="x"></node>
			<node id="174" bc="x"></node>
			<node id="175" bc="x"></node>
			<node id="176" bc="x"></node>
			<node id="177" bc="x"></node>
			<node id="178" bc="x"></node>
			<node id="179" bc="x"></node>
			<node id="180" bc="x"></node>
			<node id="181" bc="x"></node>
			<node id="182" bc="x"></node>
			<node id="183" bc="x"></node>
			<node id="184" bc="x"></node>
			<node id="185" bc="x"></node>
			<node id="186" bc="x"></node>
			<node id="187" bc="x"></node>
			<node id="188" bc="x"></node>
<!-- ... 22 like lines cut -->
		</fix>
		<fix>
			<node id="1" bc="y"></node>
			<node id="2" bc="y"></node>
			<node id="3" bc="y"></node>
			<node id="4" bc="y"></node>
			<node id="5" bc="y"></node>
			<node id="6" bc="y"></node>
			<node id="7" bc="y"></node>
			<node id="8" bc="y"></node>
			<node id="9" bc="y"></node>
			<node id="10" bc="y"></node>
			<node id="11" bc="y"></node>
			<node id="12" bc="y"></node>
			<node id="13" bc="y"></node>
			<node id="14" bc="y"></node>
			<node id="15" bc="y"></node>
			<node id="16" bc="y"></node>
			<node id="17" bc="y"></node>
			<node id="18" bc="y"></node>
			<node id="19" bc="y"></node>
			<node id="20" bc="y"></node>
<!-- ... 22 like lines cut -->
		</fix>
		<fix>
			<node id="1" bc="z"></node>
			<node id="2" bc="z"></node>
			<node id="3" bc="z"></node>
			<node id="4" bc="z"></node>
			<node id="5" bc="z"></node>
			<node id="6" bc="z"></node>
			<node id="7" bc="z"></node>
			<node id="8" bc="z"></node>
			<node id="9" bc="z"></node>
			<node id="10" bc="z"></node>
			<node id="11" bc="z"></node>
			<node id="12" bc="z"></node>
			<node id="13" bc="z"></node>
			<node id="14" bc="z"></node>
			<node id="15" bc="z"></node>
			<node id="16" bc="z"></node>
			<node id="17" bc="z"></node>
			<node id="18" bc="z"></node>
			<node id="19" bc="z"></node>
			<node id="20" bc="z"></node>
<!-- ... 358 like lines cut -->
		</fix>
	</Boundary>
	<Loads>
		<pressure>
			<quad4 id="1" lc="2" scale="1">     1,   190,   211,    22</quad4>
			<quad4 id="2" lc="2" scale="1">    22,   211,   232,    43</quad4>
			<quad4 id="3" lc="2" scale="1">    43,   232,   253,    64</quad4>
			<quad4 id="4" lc="2" scale="1">    64,   253,   274,    85</quad4>
			<quad4 id="5" lc="2" scale="1">    85,   274,   295,   106</quad4>
			<quad4 id="6" lc="2" scale="1">   106,   295,   316,   127</quad4>
			<quad4 id="7" lc="2" scale="1">   127,   316,   337,   148</quad4>
			<quad4 id="8" lc="2" scale="1">   148,   337,   358,   169</quad4>
		</pressure>
	</Loads>
	<LoadData>
		<loadcurve id="1" type="step" extend="constant">
			<loadpoint>0,0</loadpoint>
			<loadpoint>1,0.1</loadpoint>
			<loadpoint>2000,100</loadpoint>
		</loadcurve>
		<loadcurve id="2" type="smooth" extend="constant">
			<loadpoint>0,0</loadpoint>
			<loadpoint>1,0.5</loadpoint>
		</loadcurve>
	</LoadData>
	<Output>
		<plotfile type="febio"></plotfile>
        <logfile>
          <element_data data="sy">1</element_data>
        </logfile>	
    </Output>
</febio_spec>
