<?xml version="1.0" encoding="ISO-8859-1"?>
<!--
Problem Description:
	A 5x6x5 element block undergoes a prescribed displacement of 1 unit in the z-direction.
	Nodal constraints are specified for the 1/8th symmetric representation of the expansion
	of a block in the z-direction.
Main Features:
	Tension-Compression Nonlinear Orthotropic material
Secondary Features:
	
Materials:
	Tension-Compression Nonlinear Orthotropic
Degrees of Freedom: 636
Results:
	Steps Completed: 10
	Equilibrium Iterations: 46
	Right Hand Evaluations: 57
	Siffness Reformations: 10
	Other:
		The maximum total displacement is 1.02 units at time t=1.
Comments:
	Similar to problem ma03 (linear orthotropic).
-->
<febio_spec version="1.2">
	<Control>
		<title>T-C Nonlinear Orthotropic Material</title>
		<time_steps>10</time_steps>
		<step_size>0.1</step_size>
		<max_refs>15</max_refs>
		<max_ups>10</max_ups>
		<dtol>0.001</dtol>
		<etol>0.01</etol>
		<rtol>0</rtol>
		<lstol>0.9</lstol>
		<pressure_stiffness>1</pressure_stiffness>
		<time_stepper>
			<dtmin>0.01</dtmin>
			<dtmax>0.1</dtmax>
			<max_retries>5</max_retries>
			<opt_iter>10</opt_iter>
		</time_stepper>
		<plot_level>PLOT_DEFAULT</plot_level>
	</Control>
	<Material>
		<material id="1" name="Material 1" type="TC nonlinear orthotropic">
			<c1>1</c1>
			<c2>0</c2>
			<k>100</k>
			<beta>4.3,4.3,4.3</beta>
			<ksi>45,45,45</ksi>
			<mat_axis type="vector">
				<a>1,0,0</a>
				<d>0,1,0</d>
			</mat_axis>
		</material>
	</Material>
	<Geometry>
		<Nodes>
			<node id="1">-5.0000000e-001,-5.0000000e-001, 0.0000000e+000</node>
			<node id="2">-5.0000000e-001,-5.0000000e-001, 2.0000000e-001</node>
			<node id="3">-5.0000000e-001,-5.0000000e-001, 4.0000000e-001</node>
			<node id="4">-5.0000000e-001,-5.0000000e-001, 6.0000000e-001</node>
			<node id="5">-5.0000000e-001,-5.0000000e-001, 8.0000000e-001</node>
			<node id="6">-5.0000000e-001,-5.0000000e-001, 1.0000000e+000</node>
			<node id="7">-5.0000000e-001,-3.3333333e-001, 0.0000000e+000</node>
			<node id="8">-5.0000000e-001,-3.3333333e-001, 2.0000000e-001</node>
			<node id="9">-5.0000000e-001,-3.3333333e-001, 4.0000000e-001</node>
			<node id="10">-5.0000000e-001,-3.3333333e-001, 6.0000000e-001</node>
			<node id="11">-5.0000000e-001,-3.3333333e-001, 8.0000000e-001</node>
			<node id="12">-5.0000000e-001,-3.3333333e-001, 1.0000000e+000</node>
			<node id="13">-5.0000000e-001,-1.6666667e-001, 0.0000000e+000</node>
			<node id="14">-5.0000000e-001,-1.6666667e-001, 2.0000000e-001</node>
			<node id="15">-5.0000000e-001,-1.6666667e-001, 4.0000000e-001</node>
			<node id="16">-5.0000000e-001,-1.6666667e-001, 6.0000000e-001</node>
			<node id="17">-5.0000000e-001,-1.6666667e-001, 8.0000000e-001</node>
			<node id="18">-5.0000000e-001,-1.6666667e-001, 1.0000000e+000</node>
			<node id="19">-5.0000000e-001,-5.5511151e-017, 0.0000000e+000</node>
			<node id="20">-5.0000000e-001,-5.5511151e-017, 2.0000000e-001</node>
<!-- ... 232 like lines cut -->
		</Nodes>
		<Elements>
			<hex8 id="1" mat="1">     1,    43,    49,     7,     2,    44,    50,     8</hex8>
			<hex8 id="2" mat="1">     2,    44,    50,     8,     3,    45,    51,     9</hex8>
			<hex8 id="3" mat="1">     3,    45,    51,     9,     4,    46,    52,    10</hex8>
			<hex8 id="4" mat="1">     4,    46,    52,    10,     5,    47,    53,    11</hex8>
			<hex8 id="5" mat="1">     5,    47,    53,    11,     6,    48,    54,    12</hex8>
			<hex8 id="6" mat="1">     7,    49,    55,    13,     8,    50,    56,    14</hex8>
			<hex8 id="7" mat="1">     8,    50,    56,    14,     9,    51,    57,    15</hex8>
			<hex8 id="8" mat="1">     9,    51,    57,    15,    10,    52,    58,    16</hex8>
			<hex8 id="9" mat="1">    10,    52,    58,    16,    11,    53,    59,    17</hex8>
			<hex8 id="10" mat="1">    11,    53,    59,    17,    12,    54,    60,    18</hex8>
			<hex8 id="11" mat="1">    13,    55,    61,    19,    14,    56,    62,    20</hex8>
			<hex8 id="12" mat="1">    14,    56,    62,    20,    15,    57,    63,    21</hex8>
			<hex8 id="13" mat="1">    15,    57,    63,    21,    16,    58,    64,    22</hex8>
			<hex8 id="14" mat="1">    16,    58,    64,    22,    17,    59,    65,    23</hex8>
			<hex8 id="15" mat="1">    17,    59,    65,    23,    18,    60,    66,    24</hex8>
			<hex8 id="16" mat="1">    19,    61,    67,    25,    20,    62,    68,    26</hex8>
			<hex8 id="17" mat="1">    20,    62,    68,    26,    21,    63,    69,    27</hex8>
			<hex8 id="18" mat="1">    21,    63,    69,    27,    22,    64,    70,    28</hex8>
			<hex8 id="19" mat="1">    22,    64,    70,    28,    23,    65,    71,    29</hex8>
			<hex8 id="20" mat="1">    23,    65,    71,    29,    24,    66,    72,    30</hex8>
<!-- ... 130 like lines cut -->
		</Elements>
	</Geometry>
	<Boundary>
		<fix>
			<node id="1" bc="xyz"></node>
			<node id="2" bc="xy"></node>
			<node id="3" bc="xy"></node>
			<node id="4" bc="xy"></node>
			<node id="5" bc="xy"></node>
			<node id="6" bc="xy"></node>
			<node id="7" bc="xz"></node>
			<node id="8" bc="x"></node>
			<node id="9" bc="x"></node>
			<node id="10" bc="x"></node>
			<node id="11" bc="x"></node>
			<node id="12" bc="x"></node>
			<node id="13" bc="xz"></node>
			<node id="14" bc="x"></node>
			<node id="15" bc="x"></node>
			<node id="16" bc="x"></node>
			<node id="17" bc="x"></node>
			<node id="18" bc="x"></node>
			<node id="19" bc="xz"></node>
			<node id="20" bc="x"></node>
			<node id="21" bc="x"></node>
			<node id="22" bc="x"></node>
			<node id="23" bc="x"></node>
			<node id="24" bc="x"></node>
			<node id="25" bc="xz"></node>
			<node id="26" bc="x"></node>
			<node id="27" bc="x"></node>
			<node id="28" bc="x"></node>
			<node id="29" bc="x"></node>
			<node id="30" bc="x"></node>
			<node id="31" bc="xz"></node>
			<node id="32" bc="x"></node>
			<node id="33" bc="x"></node>
			<node id="34" bc="x"></node>
			<node id="35" bc="x"></node>
			<node id="36" bc="x"></node>
			<node id="37" bc="xz"></node>
			<node id="38" bc="x"></node>
			<node id="39" bc="x"></node>
			<node id="40" bc="x"></node>
			<node id="41" bc="x"></node>
			<node id="42" bc="x"></node>
			<node id="43" bc="yz"></node>
			<node id="44" bc="y"></node>
			<node id="45" bc="y"></node>
			<node id="46" bc="y"></node>
			<node id="47" bc="y"></node>
			<node id="48" bc="y"></node>
			<node id="49" bc="z"></node>
			<node id="55" bc="z"></node>
			<node id="61" bc="z"></node>
			<node id="67" bc="z"></node>
			<node id="73" bc="z"></node>
			<node id="79" bc="z"></node>
			<node id="85" bc="yz"></node>
			<node id="86" bc="y"></node>
			<node id="87" bc="y"></node>
			<node id="88" bc="y"></node>
			<node id="89" bc="y"></node>
			<node id="90" bc="y"></node>
			<node id="91" bc="z"></node>
			<node id="97" bc="z"></node>
			<node id="103" bc="z"></node>
			<node id="109" bc="z"></node>
			<node id="115" bc="z"></node>
			<node id="121" bc="z"></node>
			<node id="127" bc="yz"></node>
			<node id="128" bc="y"></node>
			<node id="129" bc="y"></node>
			<node id="130" bc="y"></node>
			<node id="131" bc="y"></node>
			<node id="132" bc="y"></node>
			<node id="133" bc="z"></node>
			<node id="139" bc="z"></node>
			<node id="145" bc="z"></node>
			<node id="151" bc="z"></node>
			<node id="157" bc="z"></node>
			<node id="163" bc="z"></node>
			<node id="169" bc="yz"></node>
			<node id="170" bc="y"></node>
			<node id="171" bc="y"></node>
			<node id="172" bc="y"></node>
			<node id="173" bc="y"></node>
			<node id="174" bc="y"></node>
			<node id="175" bc="z"></node>
			<node id="181" bc="z"></node>
			<node id="187" bc="z"></node>
			<node id="193" bc="z"></node>
			<node id="199" bc="z"></node>
			<node id="205" bc="z"></node>
			<node id="211" bc="yz"></node>
			<node id="212" bc="y"></node>
			<node id="213" bc="y"></node>
			<node id="214" bc="y"></node>
			<node id="215" bc="y"></node>
			<node id="216" bc="y"></node>
			<node id="217" bc="z"></node>
			<node id="223" bc="z"></node>
			<node id="229" bc="z"></node>
			<node id="235" bc="z"></node>
			<node id="241" bc="z"></node>
			<node id="247" bc="z"></node>
		</fix>
		<prescribe>
			<node id="6" bc="z" lc="1">1</node>
			<node id="12" bc="z" lc="1">1</node>
			<node id="18" bc="z" lc="1">1</node>
			<node id="24" bc="z" lc="1">1</node>
			<node id="30" bc="z" lc="1">1</node>
			<node id="36" bc="z" lc="1">1</node>
			<node id="42" bc="z" lc="1">1</node>
			<node id="48" bc="z" lc="1">1</node>
			<node id="54" bc="z" lc="1">1</node>
			<node id="60" bc="z" lc="1">1</node>
			<node id="66" bc="z" lc="1">1</node>
			<node id="72" bc="z" lc="1">1</node>
			<node id="78" bc="z" lc="1">1</node>
			<node id="84" bc="z" lc="1">1</node>
			<node id="90" bc="z" lc="1">1</node>
			<node id="96" bc="z" lc="1">1</node>
			<node id="102" bc="z" lc="1">1</node>
			<node id="108" bc="z" lc="1">1</node>
			<node id="114" bc="z" lc="1">1</node>
			<node id="120" bc="z" lc="1">1</node>
<!-- ... 22 like lines cut -->
		</prescribe>
	</Boundary>
	<LoadData>
		<loadcurve id="1">
			<loadpoint>0,0</loadpoint>
			<loadpoint>1,1</loadpoint>
		</loadcurve>
	</LoadData>
	<Output>
		<plotfile type="febio"></plotfile>
        <logfile>
           <element_data data="s3">75</element_data>
		</logfile>	
	</Output>
</febio_spec>
