<?xml version="1.0" encoding="ISO-8859-1"?>
<!--
Problem Description:
	A 4x4x20 element beam has a traction force of -0.01 units in the
	z-direction applied to its right end.
Main Features:
	Traction force
Secondary Features:
	
Materials:
	Arruda-Boyce
Degrees of Freedom: 1500
Results:
	Steps Completed: 10
	Equilibrium Iterations: 60
	Right Hand Evaluations: 80
	Siffness Reformations: 60
	Other:
		The maximum effective stress is 0.169 units at time t=1.
Comments:
	
-->
<febio_spec version="1.2">
	<Control>
		<title>Arruda-Boyce</title>
		<time_steps>10</time_steps>
		<step_size>0.1</step_size>
		<max_refs>15</max_refs>
		<max_ups>0</max_ups>
		<dtol>0.001</dtol>
		<etol>0.01</etol>
		<rtol>0</rtol>
		<lstol>0.9</lstol>
	</Control>
	<Material>
		<material id="1" name="Material 1" type="Arruda-Boyce">
			<density>1</density>
			<mu>1</mu>
			<N>26.5</N>
			<k>100</k>
		</material>
	</Material>
	<Geometry>
		<Nodes>
			<node id="1">-2.0000000e+000,-5.0000000e-001, 0.0000000e+000</node>
			<node id="2">-2.0000000e+000,-5.0000000e-001, 2.5000000e-001</node>
			<node id="3">-2.0000000e+000,-5.0000000e-001, 5.0000000e-001</node>
			<node id="4">-2.0000000e+000,-5.0000000e-001, 7.5000000e-001</node>
			<node id="5">-2.0000000e+000,-5.0000000e-001, 1.0000000e+000</node>
			<node id="6">-2.0000000e+000,-2.5000000e-001, 0.0000000e+000</node>
			<node id="7">-2.0000000e+000,-2.5000000e-001, 2.5000000e-001</node>
			<node id="8">-2.0000000e+000,-2.5000000e-001, 5.0000000e-001</node>
			<node id="9">-2.0000000e+000,-2.5000000e-001, 7.5000000e-001</node>
			<node id="10">-2.0000000e+000,-2.5000000e-001, 1.0000000e+000</node>
			<node id="11">-2.0000000e+000, 0.0000000e+000, 0.0000000e+000</node>
			<node id="12">-2.0000000e+000, 0.0000000e+000, 2.5000000e-001</node>
			<node id="13">-2.0000000e+000, 0.0000000e+000, 5.0000000e-001</node>
			<node id="14">-2.0000000e+000, 0.0000000e+000, 7.5000000e-001</node>
			<node id="15">-2.0000000e+000, 0.0000000e+000, 1.0000000e+000</node>
			<node id="16">-2.0000000e+000, 2.5000000e-001, 0.0000000e+000</node>
			<node id="17">-2.0000000e+000, 2.5000000e-001, 2.5000000e-001</node>
			<node id="18">-2.0000000e+000, 2.5000000e-001, 5.0000000e-001</node>
			<node id="19">-2.0000000e+000, 2.5000000e-001, 7.5000000e-001</node>
			<node id="20">-2.0000000e+000, 2.5000000e-001, 1.0000000e+000</node>
<!-- ... 505 like lines cut -->
		</Nodes>
		<Elements>
			<hex8 id="1" mat="1">     1,    26,    31,     6,     2,    27,    32,     7</hex8>
			<hex8 id="2" mat="1">     2,    27,    32,     7,     3,    28,    33,     8</hex8>
			<hex8 id="3" mat="1">     3,    28,    33,     8,     4,    29,    34,     9</hex8>
			<hex8 id="4" mat="1">     4,    29,    34,     9,     5,    30,    35,    10</hex8>
			<hex8 id="5" mat="1">     6,    31,    36,    11,     7,    32,    37,    12</hex8>
			<hex8 id="6" mat="1">     7,    32,    37,    12,     8,    33,    38,    13</hex8>
			<hex8 id="7" mat="1">     8,    33,    38,    13,     9,    34,    39,    14</hex8>
			<hex8 id="8" mat="1">     9,    34,    39,    14,    10,    35,    40,    15</hex8>
			<hex8 id="9" mat="1">    11,    36,    41,    16,    12,    37,    42,    17</hex8>
			<hex8 id="10" mat="1">    12,    37,    42,    17,    13,    38,    43,    18</hex8>
			<hex8 id="11" mat="1">    13,    38,    43,    18,    14,    39,    44,    19</hex8>
			<hex8 id="12" mat="1">    14,    39,    44,    19,    15,    40,    45,    20</hex8>
			<hex8 id="13" mat="1">    16,    41,    46,    21,    17,    42,    47,    22</hex8>
			<hex8 id="14" mat="1">    17,    42,    47,    22,    18,    43,    48,    23</hex8>
			<hex8 id="15" mat="1">    18,    43,    48,    23,    19,    44,    49,    24</hex8>
			<hex8 id="16" mat="1">    19,    44,    49,    24,    20,    45,    50,    25</hex8>
			<hex8 id="17" mat="1">    26,    51,    56,    31,    27,    52,    57,    32</hex8>
			<hex8 id="18" mat="1">    27,    52,    57,    32,    28,    53,    58,    33</hex8>
			<hex8 id="19" mat="1">    28,    53,    58,    33,    29,    54,    59,    34</hex8>
			<hex8 id="20" mat="1">    29,    54,    59,    34,    30,    55,    60,    35</hex8>
<!-- ... 300 like lines cut -->
		</Elements>
	</Geometry>
	<Boundary>
		<fix>
			<node id="1" bc="xyz"/>
			<node id="2" bc="xyz"/>
			<node id="3" bc="xyz"/>
			<node id="4" bc="xyz"/>
			<node id="5" bc="xyz"/>
			<node id="6" bc="xyz"/>
			<node id="7" bc="xyz"/>
			<node id="8" bc="xyz"/>
			<node id="9" bc="xyz"/>
			<node id="10" bc="xyz"/>
			<node id="11" bc="xyz"/>
			<node id="12" bc="xyz"/>
			<node id="13" bc="xyz"/>
			<node id="14" bc="xyz"/>
			<node id="15" bc="xyz"/>
			<node id="16" bc="xyz"/>
			<node id="17" bc="xyz"/>
			<node id="18" bc="xyz"/>
			<node id="19" bc="xyz"/>
			<node id="20" bc="xyz"/>
<!-- ... 5 like lines cut -->
		</fix>
	</Boundary>
	<Loads>
		<traction>
			<quad4 id="1" lc="1" tx="0" ty="0" tz="1">   501,   506,   507,   502</quad4>
			<quad4 id="2" lc="1" tx="0" ty="0" tz="1">   502,   507,   508,   503</quad4>
			<quad4 id="3" lc="1" tx="0" ty="0" tz="1">   503,   508,   509,   504</quad4>
			<quad4 id="4" lc="1" tx="0" ty="0" tz="1">   504,   509,   510,   505</quad4>
			<quad4 id="5" lc="1" tx="0" ty="0" tz="1">   506,   511,   512,   507</quad4>
			<quad4 id="6" lc="1" tx="0" ty="0" tz="1">   507,   512,   513,   508</quad4>
			<quad4 id="7" lc="1" tx="0" ty="0" tz="1">   508,   513,   514,   509</quad4>
			<quad4 id="8" lc="1" tx="0" ty="0" tz="1">   509,   514,   515,   510</quad4>
			<quad4 id="9" lc="1" tx="0" ty="0" tz="1">   511,   516,   517,   512</quad4>
			<quad4 id="10" lc="1" tx="0" ty="0" tz="1">   512,   517,   518,   513</quad4>
			<quad4 id="11" lc="1" tx="0" ty="0" tz="1">   513,   518,   519,   514</quad4>
			<quad4 id="12" lc="1" tx="0" ty="0" tz="1">   514,   519,   520,   515</quad4>
			<quad4 id="13" lc="1" tx="0" ty="0" tz="1">   516,   521,   522,   517</quad4>
			<quad4 id="14" lc="1" tx="0" ty="0" tz="1">   517,   522,   523,   518</quad4>
			<quad4 id="15" lc="1" tx="0" ty="0" tz="1">   518,   523,   524,   519</quad4>
			<quad4 id="16" lc="1" tx="0" ty="0" tz="1">   519,   524,   525,   520</quad4>
		</traction>
	</Loads>
	<LoadData>
		<loadcurve id="1" type="smooth" extend="constant">
			<loadpoint>0,0</loadpoint>
			<loadpoint>1,-0.01</loadpoint>
		</loadcurve>
	</LoadData>
	<Output>
		<plotfile type="febio"></plotfile>
		<logfile>
			<element_data data="sx">36</element_data>
		</logfile>
		</Output>
</febio_spec>
