<?xml version="1.0" encoding="ISO-8859-1"?>
<!--
Problem Description:
	Viscoelastic response of cantilever beam.
Main Features:
	Uncoupled viscoelasticity
Secondary Features:
	Must points
Materials:
	Ogden
	Uncoupled Viscoelastic
Degrees of Freedom: 540
Results:
	Steps Completed: 47
	Equilibrium Iterations: 256
	Right Hand Evaluations: 346
	Siffness Reformations: 256
	Other:
		See the stress-strain curve in ma07.jpg
Comments:
	This problem tests the uncoupled viscoelastic
	formulation, since bending is a good test for mesh locking.
-->
<febio_spec version="1.2">
	<Module type="solid"/>
	<Control>
		<time_steps>1000</time_steps>
		<step_size>0.1</step_size>
		<max_refs>25</max_refs>
		<max_ups>0</max_ups>
		<dtol>0.001</dtol>
		<etol>0.01</etol>
		<rtol>0</rtol>
		<lstol>0.9</lstol>
		<time_stepper>
			<dtmin>0.01</dtmin>
			<dtmax lc="1"></dtmax>
			<max_retries>5</max_retries>
			<opt_iter>10</opt_iter>
		</time_stepper>
		<analysis type="static"/>
	</Control>
	<Globals>
		<Constants>
			<T>0</T>
			<R>0</R>
			<Fc>0</Fc>
		</Constants>
	</Globals>
	<Material>
		<material id="1" name="Ogden Viscoelastic" type="uncoupled viscoelastic">
			<g1>1</g1>
			<g2>0</g2>
			<g3>0</g3>
			<g4>0</g4>
			<g5>0</g5>
			<g6>0</g6>
			<t1>1</t1>
			<t2>0</t2>
			<t3>0</t3>
			<t4>0</t4>
			<t5>0</t5>
			<t6>0</t6>
			<elastic type="Ogden">
				<k>1000</k>
				<density>1</density>
				<c1>1</c1>
				<c2>0</c2>
				<c3>0</c3>
				<c4>0</c4>
				<c5>0</c5>
				<c6>0</c6>
				<m1>3</m1>
				<m2>1</m2>
				<m3>1</m3>
				<m4>1</m4>
				<m5>1</m5>
				<m6>1</m6>
			</elastic>
		</material>
	</Material>
	<Geometry>
		<Nodes>
			<node id="1"> -5.0000000e-01, -5.0000000e-01,  0.0000000e+00</node>
			<node id="2"> -5.0000000e-01, -5.0000000e-01,  5.0000000e-01</node>
			<node id="3"> -5.0000000e-01, -5.0000000e-01,  1.0000000e+00</node>
			<node id="4"> -5.0000000e-01, -5.0000000e-01,  1.5000000e+00</node>
			<node id="5"> -5.0000000e-01, -5.0000000e-01,  2.0000000e+00</node>
			<node id="6"> -5.0000000e-01, -5.0000000e-01,  2.5000000e+00</node>
			<node id="7"> -5.0000000e-01, -5.0000000e-01,  3.0000000e+00</node>
			<node id="8"> -5.0000000e-01, -5.0000000e-01,  3.5000000e+00</node>
			<node id="9"> -5.0000000e-01, -5.0000000e-01,  4.0000000e+00</node>
			<node id="10"> -5.0000000e-01, -5.0000000e-01,  4.5000000e+00</node>
			<node id="11"> -5.0000000e-01, -5.0000000e-01,  5.0000000e+00</node>
			<node id="12"> -5.0000000e-01, -5.0000000e-01,  5.5000000e+00</node>
			<node id="13"> -5.0000000e-01, -5.0000000e-01,  6.0000000e+00</node>
			<node id="14"> -5.0000000e-01, -5.0000000e-01,  6.5000000e+00</node>
			<node id="15"> -5.0000000e-01, -5.0000000e-01,  7.0000000e+00</node>
			<node id="16"> -5.0000000e-01, -5.0000000e-01,  7.5000000e+00</node>
			<node id="17"> -5.0000000e-01, -5.0000000e-01,  8.0000000e+00</node>
			<node id="18"> -5.0000000e-01, -5.0000000e-01,  8.5000000e+00</node>
			<node id="19"> -5.0000000e-01, -5.0000000e-01,  9.0000000e+00</node>
			<node id="20"> -5.0000000e-01, -5.0000000e-01,  9.5000000e+00</node>
<!-- ... 169 like lines cut -->
		</Nodes>
		<Elements>
			<hex8 id="1" mat="1">     1,    64,    85,    22,     2,    65,    86,    23</hex8>
			<hex8 id="2" mat="1">     2,    65,    86,    23,     3,    66,    87,    24</hex8>
			<hex8 id="3" mat="1">     3,    66,    87,    24,     4,    67,    88,    25</hex8>
			<hex8 id="4" mat="1">     4,    67,    88,    25,     5,    68,    89,    26</hex8>
			<hex8 id="5" mat="1">     5,    68,    89,    26,     6,    69,    90,    27</hex8>
			<hex8 id="6" mat="1">     6,    69,    90,    27,     7,    70,    91,    28</hex8>
			<hex8 id="7" mat="1">     7,    70,    91,    28,     8,    71,    92,    29</hex8>
			<hex8 id="8" mat="1">     8,    71,    92,    29,     9,    72,    93,    30</hex8>
			<hex8 id="9" mat="1">     9,    72,    93,    30,    10,    73,    94,    31</hex8>
			<hex8 id="10" mat="1">    10,    73,    94,    31,    11,    74,    95,    32</hex8>
			<hex8 id="11" mat="1">    11,    74,    95,    32,    12,    75,    96,    33</hex8>
			<hex8 id="12" mat="1">    12,    75,    96,    33,    13,    76,    97,    34</hex8>
			<hex8 id="13" mat="1">    13,    76,    97,    34,    14,    77,    98,    35</hex8>
			<hex8 id="14" mat="1">    14,    77,    98,    35,    15,    78,    99,    36</hex8>
			<hex8 id="15" mat="1">    15,    78,    99,    36,    16,    79,   100,    37</hex8>
			<hex8 id="16" mat="1">    16,    79,   100,    37,    17,    80,   101,    38</hex8>
			<hex8 id="17" mat="1">    17,    80,   101,    38,    18,    81,   102,    39</hex8>
			<hex8 id="18" mat="1">    18,    81,   102,    39,    19,    82,   103,    40</hex8>
			<hex8 id="19" mat="1">    19,    82,   103,    40,    20,    83,   104,    41</hex8>
			<hex8 id="20" mat="1">    20,    83,   104,    41,    21,    84,   105,    42</hex8>
<!-- ... 60 like lines cut -->
		</Elements>
	</Geometry>
	<Boundary>
		<fix>
			<node id="1" bc="xyz"/>
			<node id="22" bc="xyz"/>
			<node id="43" bc="xyz"/>
			<node id="64" bc="xyz"/>
			<node id="85" bc="xyz"/>
			<node id="106" bc="xyz"/>
			<node id="127" bc="xyz"/>
			<node id="148" bc="xyz"/>
			<node id="169" bc="xyz"/>
		</fix>
	</Boundary>
	<Loads>
		<traction>
			<quad4 id="1" lc="2" tx="0" ty="1" tz="0">   169,   106,   107,   170</quad4>
			<quad4 id="2" lc="2" tx="0" ty="1" tz="0">   170,   107,   108,   171</quad4>
			<quad4 id="3" lc="2" tx="0" ty="1" tz="0">   171,   108,   109,   172</quad4>
			<quad4 id="4" lc="2" tx="0" ty="1" tz="0">   172,   109,   110,   173</quad4>
			<quad4 id="5" lc="2" tx="0" ty="1" tz="0">   173,   110,   111,   174</quad4>
			<quad4 id="6" lc="2" tx="0" ty="1" tz="0">   174,   111,   112,   175</quad4>
			<quad4 id="7" lc="2" tx="0" ty="1" tz="0">   175,   112,   113,   176</quad4>
			<quad4 id="8" lc="2" tx="0" ty="1" tz="0">   176,   113,   114,   177</quad4>
			<quad4 id="9" lc="2" tx="0" ty="1" tz="0">   177,   114,   115,   178</quad4>
			<quad4 id="10" lc="2" tx="0" ty="1" tz="0">   178,   115,   116,   179</quad4>
			<quad4 id="11" lc="2" tx="0" ty="1" tz="0">   179,   116,   117,   180</quad4>
			<quad4 id="12" lc="2" tx="0" ty="1" tz="0">   180,   117,   118,   181</quad4>
			<quad4 id="13" lc="2" tx="0" ty="1" tz="0">   181,   118,   119,   182</quad4>
			<quad4 id="14" lc="2" tx="0" ty="1" tz="0">   182,   119,   120,   183</quad4>
			<quad4 id="15" lc="2" tx="0" ty="1" tz="0">   183,   120,   121,   184</quad4>
			<quad4 id="16" lc="2" tx="0" ty="1" tz="0">   184,   121,   122,   185</quad4>
			<quad4 id="17" lc="2" tx="0" ty="1" tz="0">   185,   122,   123,   186</quad4>
			<quad4 id="18" lc="2" tx="0" ty="1" tz="0">   186,   123,   124,   187</quad4>
			<quad4 id="19" lc="2" tx="0" ty="1" tz="0">   187,   124,   125,   188</quad4>
			<quad4 id="20" lc="2" tx="0" ty="1" tz="0">   188,   125,   126,   189</quad4>
<!-- ... 20 like lines cut -->
		</traction>
	</Loads>
	<LoadData>
		<loadcurve id="1" type="step">
			<loadpoint>0,0</loadpoint>
			<loadpoint>2,0.1</loadpoint>
			<loadpoint>10,1</loadpoint>
			<loadpoint>100,10</loadpoint>
		</loadcurve>
		<loadcurve id="2" type="smooth">
			<loadpoint>0,0</loadpoint>
			<loadpoint>1,-0.0002</loadpoint>
		</loadcurve>
	</LoadData>
	<Output>
		<plotfile type="febio">
			<var type="displacement"/>
			<var type="relative volume"/>
			<var type="stress"/>
		</plotfile>
	</Output>
	<Output>
		<plotfile type="febio"></plotfile>
        <logfile>
			<element_data data="sx">21</element_data>
		</logfile>	
	</Output>
</febio_spec>
