<?xml version="1.0" encoding="ISO-8859-1"?>
<!--
Problem Description:
	A biphasic quarter symmetry cylinder of 300 elements is stretched to 3% strain
	along the z direction (fiber direction) in 6 seconds and then held at that strain 
	to 450 seconds.  A 0 fluid pressure constraint is applied to the curved surface of the cylinder. 
	The solid component of the biphasic material is represented by the PRLig material, 
	and the large lateral contraction caused by the Poisson's Ratio causes a
	large pressure buildup and fluid to exude outward laterally from the cylinder.
	This results in stress relaxation, which is evident in a large peak stress which relaxes to 
	a smaller equilibrium stress. 
	
	
Main Features:
	Stress-relaxation caused by lateral contraction due to a large Poisson's ratio
Secondary Features:
	Non-uniform element thickness in lateral directions of the cylinder.
Materials:
	PRLig
	Biphasic
Degrees of Freedom: 160
Results:
	Steps Completed: 352
	Equilibrium Iterations: 891
	Right Hand Evaluations: 1244
	Siffness Reformations: 352
Comments:
	Max z-stress = 9.75319 at t = 5.8
-->



<febio_spec version="1.2">
	<Module type="biphasic"/>
	<Control>
		<time_steps>45000</time_steps>
		<step_size>0.01</step_size>
		<max_refs>50</max_refs>
		<max_ups>20</max_ups>
		<dtol>0.002</dtol>
		<etol>0.001</etol>
		<rtol>0</rtol>
		<ptol>0.01</ptol>
		<lstol>0.9</lstol>
		<time_stepper>
			<dtmin>0.00005</dtmin>
			<dtmax lc="2"></dtmax>
			<max_retries>10</max_retries>
			<opt_iter>50</opt_iter>
		</time_stepper>
	</Control>
	<Globals>
		<Constants>
			<T>0</T>
			<R>0</R>
			<Fc>0</Fc>
		</Constants>
	</Globals>
	<Material>
		<material id="1" name="Material1" type="biphasic">
			<phi0>0.3</phi0>
			<solid type="PRLig">
			 <c1>90</c1>
			  <c2>160</c2>
			  <mu>0.025</mu>
			  <v0>5.85</v0>
			  <m>-100</m>		
			  <k>1.55</k>	
			<mat_axis type="vector">
				<a>0,0,1</a>
				<d>1,0,0</d>
			</mat_axis>
			</solid>
			<permeability type="perm-Holmes-Mow">
				<perm>30.0e-4</perm>
				<M>8.0</M>
				<alpha>2.0</alpha>
			</permeability>
		</material>
	</Material>
	<Geometry>
		<Nodes>
			<node id="1"> 0.0000000e+000, 0.0000000e+000, 0.0000000e+000</node>
			<node id="2"> 9.8606363e-002, 0.0000000e+000, 0.0000000e+000</node>
			<node id="3"> 9.8066187e-002, 1.0307171e-002, 0.0000000e+000</node>
			<node id="4"> 9.6451577e-002, 2.0501415e-002, 0.0000000e+000</node>
			<node id="5"> 9.3780224e-002, 3.0471041e-002, 0.0000000e+000</node>
			<node id="6"> 9.0081395e-002, 4.0106820e-002, 0.0000000e+000</node>
			<node id="7"> 8.5395616e-002, 4.9303181e-002, 0.0000000e+000</node>
			<node id="8"> 7.9774224e-002, 5.7959365e-002, 0.0000000e+000</node>
			<node id="9"> 7.3278809e-002, 6.5980534e-002, 0.0000000e+000</node>
			<node id="10"> 6.5980536e-002, 7.3278807e-002, 0.0000000e+000</node>
			<node id="11"> 5.7959367e-002, 7.9774222e-002, 0.0000000e+000</node>
			<node id="12"> 4.9303183e-002, 8.5395614e-002, 0.0000000e+000</node>
			<node id="13"> 4.0106823e-002, 9.0081394e-002, 0.0000000e+000</node>
			<node id="14"> 3.0471044e-002, 9.3780223e-002, 0.0000000e+000</node>
			<node id="15"> 2.0501418e-002, 9.6451577e-002, 0.0000000e+000</node>
			<node id="16"> 1.0307174e-002, 9.8066187e-002, 0.0000000e+000</node>
			<node id="17"> 2.6421473e-009, 9.8606363e-002, 0.0000000e+000</node>
			<node id="18"> 1.8932422e-001, 0.0000000e+000, 0.0000000e+000</node>
			<node id="19"> 1.8828708e-001, 1.9789769e-002, 0.0000000e+000</node>
			<node id="20"> 1.8518703e-001, 3.9362717e-002, 0.0000000e+000</node>
<!-- ... 622 like lines cut -->
		</Nodes>
		<Elements>
			<penta6 id="1" mat="1">     1,     2,     3,   322,   323,   324</penta6>
			<penta6 id="2" mat="1">     1,     3,     4,   322,   324,   325</penta6>
			<penta6 id="3" mat="1">     1,     4,     5,   322,   325,   326</penta6>
			<penta6 id="4" mat="1">     1,     5,     6,   322,   326,   327</penta6>
			<penta6 id="5" mat="1">     1,     6,     7,   322,   327,   328</penta6>
			<penta6 id="6" mat="1">     1,     7,     8,   322,   328,   329</penta6>
			<penta6 id="7" mat="1">     1,     8,     9,   322,   329,   330</penta6>
			<penta6 id="8" mat="1">     1,     9,    10,   322,   330,   331</penta6>
			<penta6 id="9" mat="1">     1,    10,    11,   322,   331,   332</penta6>
			<penta6 id="10" mat="1">     1,    11,    12,   322,   332,   333</penta6>
			<penta6 id="11" mat="1">     1,    12,    13,   322,   333,   334</penta6>
			<penta6 id="12" mat="1">     1,    13,    14,   322,   334,   335</penta6>
			<penta6 id="13" mat="1">     1,    14,    15,   322,   335,   336</penta6>
			<penta6 id="14" mat="1">     1,    15,    16,   322,   336,   337</penta6>
			<penta6 id="15" mat="1">     1,    16,    17,   322,   337,   338</penta6>
			<hex8 id="16" mat="1">     2,    18,    19,     3,   323,   339,   340,   324</hex8>
			<hex8 id="17" mat="1">     3,    19,    20,     4,   324,   340,   341,   325</hex8>
			<hex8 id="18" mat="1">     4,    20,    21,     5,   325,   341,   342,   326</hex8>
			<hex8 id="19" mat="1">     5,    21,    22,     6,   326,   342,   343,   327</hex8>
			<hex8 id="20" mat="1">     6,    22,    23,     7,   327,   343,   344,   328</hex8>
			<hex8 id="21" mat="1">     7,    23,    24,     8,   328,   344,   345,   329</hex8>
			<hex8 id="22" mat="1">     8,    24,    25,     9,   329,   345,   346,   330</hex8>
			<hex8 id="23" mat="1">     9,    25,    26,    10,   330,   346,   347,   331</hex8>
			<hex8 id="24" mat="1">    10,    26,    27,    11,   331,   347,   348,   332</hex8>
			<hex8 id="25" mat="1">    11,    27,    28,    12,   332,   348,   349,   333</hex8>
			<hex8 id="26" mat="1">    12,    28,    29,    13,   333,   349,   350,   334</hex8>
			<hex8 id="27" mat="1">    13,    29,    30,    14,   334,   350,   351,   335</hex8>
			<hex8 id="28" mat="1">    14,    30,    31,    15,   335,   351,   352,   336</hex8>
			<hex8 id="29" mat="1">    15,    31,    32,    16,   336,   352,   353,   337</hex8>
			<hex8 id="30" mat="1">    16,    32,    33,    17,   337,   353,   354,   338</hex8>
			<hex8 id="31" mat="1">    18,    34,    35,    19,   339,   355,   356,   340</hex8>
			<hex8 id="32" mat="1">    19,    35,    36,    20,   340,   356,   357,   341</hex8>
			<hex8 id="33" mat="1">    20,    36,    37,    21,   341,   357,   358,   342</hex8>
			<hex8 id="34" mat="1">    21,    37,    38,    22,   342,   358,   359,   343</hex8>
			<hex8 id="35" mat="1">    22,    38,    39,    23,   343,   359,   360,   344</hex8>
<!-- ... 265 like lines cut -->
		</Elements>
	</Geometry>
	<Boundary>
		<fix>
			<node id="1" bc="z"/>
			<node id="2" bc="z"/>
			<node id="3" bc="z"/>
			<node id="4" bc="z"/>
			<node id="5" bc="z"/>
			<node id="6" bc="z"/>
			<node id="7" bc="z"/>
			<node id="8" bc="z"/>
			<node id="9" bc="z"/>
			<node id="10" bc="z"/>
			<node id="11" bc="z"/>
			<node id="12" bc="z"/>
			<node id="13" bc="z"/>
			<node id="14" bc="z"/>
			<node id="15" bc="z"/>
			<node id="16" bc="z"/>
			<node id="17" bc="z"/>
			<node id="18" bc="z"/>
			<node id="19" bc="z"/>
			<node id="20" bc="z"/>
<!-- ... 301 like lines cut -->
		</fix>
		<fix>
			<node id="1" bc="y"/>
			<node id="2" bc="y"/>
			<node id="18" bc="y"/>
			<node id="34" bc="y"/>
			<node id="50" bc="y"/>
			<node id="66" bc="y"/>
			<node id="82" bc="y"/>
			<node id="98" bc="y"/>
			<node id="114" bc="y"/>
			<node id="130" bc="y"/>
			<node id="146" bc="y"/>
			<node id="162" bc="y"/>
			<node id="178" bc="y"/>
			<node id="194" bc="y"/>
			<node id="210" bc="y"/>
			<node id="226" bc="y"/>
			<node id="242" bc="y"/>
			<node id="258" bc="y"/>
			<node id="274" bc="y"/>
			<node id="290" bc="y"/>
<!-- ... 22 like lines cut -->
		</fix>
		<fix>
			<node id="1" bc="x"/>
			<node id="17" bc="x"/>
			<node id="33" bc="x"/>
			<node id="49" bc="x"/>
			<node id="65" bc="x"/>
			<node id="81" bc="x"/>
			<node id="97" bc="x"/>
			<node id="113" bc="x"/>
			<node id="129" bc="x"/>
			<node id="145" bc="x"/>
			<node id="161" bc="x"/>
			<node id="177" bc="x"/>
			<node id="193" bc="x"/>
			<node id="209" bc="x"/>
			<node id="225" bc="x"/>
			<node id="241" bc="x"/>
			<node id="257" bc="x"/>
			<node id="273" bc="x"/>
			<node id="289" bc="x"/>
			<node id="305" bc="x"/>
<!-- ... 22 like lines cut -->
		</fix>
		<fix>
			<node id="306" bc="p"/>
			<node id="307" bc="p"/>
			<node id="308" bc="p"/>
			<node id="309" bc="p"/>
			<node id="310" bc="p"/>
			<node id="311" bc="p"/>
			<node id="312" bc="p"/>
			<node id="313" bc="p"/>
			<node id="314" bc="p"/>
			<node id="315" bc="p"/>
			<node id="316" bc="p"/>
			<node id="317" bc="p"/>
			<node id="318" bc="p"/>
			<node id="319" bc="p"/>
			<node id="320" bc="p"/>
			<node id="321" bc="p"/>
			<node id="627" bc="p"/>
			<node id="628" bc="p"/>
			<node id="629" bc="p"/>
			<node id="630" bc="p"/>
<!-- ... 12 like lines cut -->
		</fix>
		<prescribe>
			<node id="322" bc="z" lc="1">1</node>
			<node id="323" bc="z" lc="1">1</node>
			<node id="324" bc="z" lc="1">1</node>
			<node id="325" bc="z" lc="1">1</node>
			<node id="326" bc="z" lc="1">1</node>
			<node id="327" bc="z" lc="1">1</node>
			<node id="328" bc="z" lc="1">1</node>
			<node id="329" bc="z" lc="1">1</node>
			<node id="330" bc="z" lc="1">1</node>
			<node id="331" bc="z" lc="1">1</node>
			<node id="332" bc="z" lc="1">1</node>
			<node id="333" bc="z" lc="1">1</node>
			<node id="334" bc="z" lc="1">1</node>
			<node id="335" bc="z" lc="1">1</node>
			<node id="336" bc="z" lc="1">1</node>
			<node id="337" bc="z" lc="1">1</node>
			<node id="338" bc="z" lc="1">1</node>
			<node id="339" bc="z" lc="1">1</node>
			<node id="340" bc="z" lc="1">1</node>
			<node id="341" bc="z" lc="1">1</node>
<!-- ... 301 like lines cut -->
		</prescribe>
	</Boundary>
	<LoadData>
		<loadcurve id="1" type="linear">
			<loadpoint>0,0</loadpoint>
			<loadpoint>6,0.03</loadpoint>
			<loadpoint>450,0.03</loadpoint>
		</loadcurve>
		<loadcurve id="2">
			<loadpoint>0,0</loadpoint>
			<loadpoint>8.0,0.05</loadpoint>
			<loadpoint>10.0,0.5</loadpoint>
			<loadpoint>450.0,2.5</loadpoint>
		</loadcurve>
	</LoadData>
	<Output>
		<plotfile type="febio">
			<var type="displacement"/>
			<var type="effective fluid pressure"/>
			<var type="relative volume"/>
			<var type="fluid flux"/>
			<var type="stress"/>
			<var type="reaction forces"/>
		</plotfile>
		
		<logfile>
		    <element_data data="sz">1</element_data>
	     </logfile>
	</Output>
</febio_spec>

