<?xml version="1.0" encoding="ISO-8859-1"?>
<!--
Problem Description:
	Multigeneration growth in a loaded cantilever beam.  There are two intermingled growth
	generations in this analysis.  In generation 1, the beam is loaded and undergoes a large
	deflection.  Generation 2 grows in the loaded state. The load is subsequently removed 
	and the cantilever recovers to a residually stressed state.
Main Features:
	Multigeneration
Secondary Features:
Materials:
	Holmes-Mow elastic solid
Degrees of Freedom: 6300
Results:
	Steps Completed: 20
	Equilibrium Iterations: 107
	Right Hand Evaluations: 141
	Siffness Reformations: 107
	Other:
		The deflection of the beam (Y-displacement of node 561) is -4.564
		after unloading, due to the growth of the second generation in the
		deformed state.
Comments:
	This problem is from the article "Multigenerational interstitial growth of biological 
	tissues", Ateshian and Ricken, Biomech Model Mechanobiol, 2010
-->
<febio_spec version="1.2">
	<Module type="solid"/>
	<Control>
		<time_steps>20</time_steps>
		<step_size>0.1</step_size>
		<max_refs>15</max_refs>
		<max_ups>0</max_ups>
		<dtol>0.001</dtol>
		<etol>0.01</etol>
		<rtol>0</rtol>
		<lstol>0.9</lstol>
		<time_stepper>
			<dtmin>0.01</dtmin>
			<dtmax lc="1"></dtmax>
			<max_retries>5</max_retries>
			<opt_iter>10</opt_iter>
		</time_stepper>
		<analysis type="static"/>
	</Control>
	<Globals>
		<Constants>
			<T>0</T>
			<R>0</R>
			<Fc>0</Fc>
		</Constants>
	</Globals>
	<Material>
		<material id="1" name="Solid Mixture" type="multigeneration">
			<generation id="1">
				<start_time>0.0</start_time>
				<solid type="Holmes-Mow">
					<density>1</density>
					<E>1</E>
					<v>0</v>
					<beta>0.1</beta>
				</solid>
			</generation>
			<generation id="2">
				<start_time>1.0</start_time>
				<solid type="Holmes-Mow">
					<density>1</density>
					<E>1</E>
					<v>0</v>
					<beta>0.1</beta>
				</solid>
			</generation>
		</material>
	</Material>
	<Geometry>
		<Nodes>
			<node id="1"> -5.0000000e-01, -5.0000000e-01,  0.0000000e+00</node>
			<node id="2"> -5.0000000e-01, -5.0000000e-01,  8.5917405e-03</node>
			<node id="3"> -5.0000000e-01, -5.0000000e-01,  1.8042655e-02</node>
			<node id="4"> -5.0000000e-01, -5.0000000e-01,  2.8438661e-02</node>
			<node id="5"> -5.0000000e-01, -5.0000000e-01,  3.9874267e-02</node>
			<node id="6"> -5.0000000e-01, -5.0000000e-01,  5.2453435e-02</node>
			<node id="7"> -5.0000000e-01, -5.0000000e-01,  6.6290519e-02</node>
			<node id="8"> -5.0000000e-01, -5.0000000e-01,  8.1511311e-02</node>
			<node id="9"> -5.0000000e-01, -5.0000000e-01,  9.8254182e-02</node>
			<node id="10"> -5.0000000e-01, -5.0000000e-01,  1.1667134e-01</node>
			<node id="11"> -5.0000000e-01, -5.0000000e-01,  1.3693022e-01</node>
			<node id="12"> -5.0000000e-01, -5.0000000e-01,  1.5921498e-01</node>
			<node id="13"> -5.0000000e-01, -5.0000000e-01,  1.8372822e-01</node>
			<node id="14"> -5.0000000e-01, -5.0000000e-01,  2.1069278e-01</node>
			<node id="15"> -5.0000000e-01, -5.0000000e-01,  2.4035380e-01</node>
			<node id="16"> -5.0000000e-01, -5.0000000e-01,  2.7298092e-01</node>
			<node id="17"> -5.0000000e-01, -5.0000000e-01,  3.0887075e-01</node>
			<node id="18"> -5.0000000e-01, -5.0000000e-01,  3.4834956e-01</node>
			<node id="19"> -5.0000000e-01, -5.0000000e-01,  3.9177626e-01</node>
			<node id="20"> -5.0000000e-01, -5.0000000e-01,  4.3954563e-01</node>
<!-- ... 2122 like lines cut -->
		</Nodes>
		<Elements>
			<hex8 id="1" mat="1">     1,  1072,  1123,    52,     2,  1073,  1124,    53</hex8>
			<hex8 id="2" mat="1">     2,  1073,  1124,    53,     3,  1074,  1125,    54</hex8>
			<hex8 id="3" mat="1">     3,  1074,  1125,    54,     4,  1075,  1126,    55</hex8>
			<hex8 id="4" mat="1">     4,  1075,  1126,    55,     5,  1076,  1127,    56</hex8>
			<hex8 id="5" mat="1">     5,  1076,  1127,    56,     6,  1077,  1128,    57</hex8>
			<hex8 id="6" mat="1">     6,  1077,  1128,    57,     7,  1078,  1129,    58</hex8>
			<hex8 id="7" mat="1">     7,  1078,  1129,    58,     8,  1079,  1130,    59</hex8>
			<hex8 id="8" mat="1">     8,  1079,  1130,    59,     9,  1080,  1131,    60</hex8>
			<hex8 id="9" mat="1">     9,  1080,  1131,    60,    10,  1081,  1132,    61</hex8>
			<hex8 id="10" mat="1">    10,  1081,  1132,    61,    11,  1082,  1133,    62</hex8>
			<hex8 id="11" mat="1">    11,  1082,  1133,    62,    12,  1083,  1134,    63</hex8>
			<hex8 id="12" mat="1">    12,  1083,  1134,    63,    13,  1084,  1135,    64</hex8>
			<hex8 id="13" mat="1">    13,  1084,  1135,    64,    14,  1085,  1136,    65</hex8>
			<hex8 id="14" mat="1">    14,  1085,  1136,    65,    15,  1086,  1137,    66</hex8>
			<hex8 id="15" mat="1">    15,  1086,  1137,    66,    16,  1087,  1138,    67</hex8>
			<hex8 id="16" mat="1">    16,  1087,  1138,    67,    17,  1088,  1139,    68</hex8>
			<hex8 id="17" mat="1">    17,  1088,  1139,    68,    18,  1089,  1140,    69</hex8>
			<hex8 id="18" mat="1">    18,  1089,  1140,    69,    19,  1090,  1141,    70</hex8>
			<hex8 id="19" mat="1">    19,  1090,  1141,    70,    20,  1091,  1142,    71</hex8>
			<hex8 id="20" mat="1">    20,  1091,  1142,    71,    21,  1092,  1143,    72</hex8>
<!-- ... 980 like lines cut -->
		</Elements>
	</Geometry>
	<Boundary>
		<fix>
			<node id="1" bc="xyz"/>
			<node id="52" bc="xyz"/>
			<node id="103" bc="xyz"/>
			<node id="154" bc="xyz"/>
			<node id="205" bc="xyz"/>
			<node id="256" bc="xyz"/>
			<node id="307" bc="xyz"/>
			<node id="358" bc="xyz"/>
			<node id="409" bc="xyz"/>
			<node id="460" bc="xyz"/>
			<node id="511" bc="xyz"/>
			<node id="562" bc="xyz"/>
			<node id="613" bc="xyz"/>
			<node id="664" bc="xyz"/>
			<node id="715" bc="xyz"/>
			<node id="766" bc="xyz"/>
			<node id="817" bc="xyz"/>
			<node id="868" bc="xyz"/>
			<node id="919" bc="xyz"/>
			<node id="970" bc="xyz"/>
<!-- ... 22 like lines cut -->
		</fix>
	</Boundary>
	<Loads>
		<traction>
			<quad4 id="1" lc="2" tx="0" ty="-1" tz="0">  2092,  1021,  1022,  2093</quad4>
			<quad4 id="2" lc="2" tx="0" ty="-1" tz="0">  2093,  1022,  1023,  2094</quad4>
			<quad4 id="3" lc="2" tx="0" ty="-1" tz="0">  2094,  1023,  1024,  2095</quad4>
			<quad4 id="4" lc="2" tx="0" ty="-1" tz="0">  2095,  1024,  1025,  2096</quad4>
			<quad4 id="5" lc="2" tx="0" ty="-1" tz="0">  2096,  1025,  1026,  2097</quad4>
			<quad4 id="6" lc="2" tx="0" ty="-1" tz="0">  2097,  1026,  1027,  2098</quad4>
			<quad4 id="7" lc="2" tx="0" ty="-1" tz="0">  2098,  1027,  1028,  2099</quad4>
			<quad4 id="8" lc="2" tx="0" ty="-1" tz="0">  2099,  1028,  1029,  2100</quad4>
			<quad4 id="9" lc="2" tx="0" ty="-1" tz="0">  2100,  1029,  1030,  2101</quad4>
			<quad4 id="10" lc="2" tx="0" ty="-1" tz="0">  2101,  1030,  1031,  2102</quad4>
			<quad4 id="11" lc="2" tx="0" ty="-1" tz="0">  2102,  1031,  1032,  2103</quad4>
			<quad4 id="12" lc="2" tx="0" ty="-1" tz="0">  2103,  1032,  1033,  2104</quad4>
			<quad4 id="13" lc="2" tx="0" ty="-1" tz="0">  2104,  1033,  1034,  2105</quad4>
			<quad4 id="14" lc="2" tx="0" ty="-1" tz="0">  2105,  1034,  1035,  2106</quad4>
			<quad4 id="15" lc="2" tx="0" ty="-1" tz="0">  2106,  1035,  1036,  2107</quad4>
			<quad4 id="16" lc="2" tx="0" ty="-1" tz="0">  2107,  1036,  1037,  2108</quad4>
			<quad4 id="17" lc="2" tx="0" ty="-1" tz="0">  2108,  1037,  1038,  2109</quad4>
			<quad4 id="18" lc="2" tx="0" ty="-1" tz="0">  2109,  1038,  1039,  2110</quad4>
			<quad4 id="19" lc="2" tx="0" ty="-1" tz="0">  2110,  1039,  1040,  2111</quad4>
			<quad4 id="20" lc="2" tx="0" ty="-1" tz="0">  2111,  1040,  1041,  2112</quad4>
<!-- ... 30 like lines cut -->
		</traction>
	</Loads>
	<LoadData>
		<loadcurve id="1" type="step">
			<loadpoint>0,0</loadpoint>
			<loadpoint>1,0.1</loadpoint>
			<loadpoint>2,0.1</loadpoint>
		</loadcurve>
		<loadcurve id="2" type="linear">
			<loadpoint>0,0</loadpoint>
			<loadpoint>1,0.001</loadpoint>
			<loadpoint>2,0</loadpoint>
		</loadcurve>
	</LoadData>
	<Output>
		<plotfile type="febio">
			<var type="displacement"/>
			<var type="relative volume"/>
			<var type="stress"/>
		</plotfile>
	    <logfile>
           <element_data data="sz">1</element_data>
        </logfile>
    </Output>
</febio_spec>
