<?xml version="1.0" encoding="ISO-8859-1"?>
<!--
Problem Description:
	Multigeneration growth in a hollow tube, followed by radial cut.  There are two intermingled growth
	generations in this analysis.  In generation 1, the tube is internally pressurized and undergoes a large
	expansion.  Generation 2 grows in this pressurized state. The pressure is subsequently removed 
	and the tube recovers to a residually stressed state. The tube is then cut radially and observed to
	curl inward (producing a negative opening angle) as a result of the residual stresses.
Main Features:
	Multigeneration
Secondary Features:
	Multi-step analysis
Materials:
	Holmes-Mow elastic solid
Degrees of Freedom: 6088
Results:
	Steps Completed: 15
	Equilibrium Iterations: 126
	Right Hand Evaluations: 147
	Siffness Reformations: 127
	Other:
		The final position of node 2311 is (-0.3573, -0.4602, 1)
Comments:
	This problem is from the article "Multigenerational interstitial growth of biological 
	tissues", Ateshian and Ricken, Biomech Model Mechanobiol, 2010
-->
<febio_spec version="1.2">
	<Globals>
		<Constants>
			<T>0</T>
			<R>0</R>
			<Fc>0</Fc>
		</Constants>
	</Globals>
	<Material>
		<material id="1" name="Multigeneration material" type="multigeneration">
			<generation id="1">
				<start_time>0.0</start_time>
				<solid type="Holmes-Mow">
					<density>1</density>
					<E>1</E>
					<v>0</v>
					<beta>0.5</beta>
				</solid>
			</generation>
			<generation id="2">
				<start_time>0.5</start_time>
				<solid type="Holmes-Mow">
					<density>1</density>
					<E>1</E>
					<v>0</v>
					<beta>0.5</beta>
				</solid>
			</generation>
		</material>
	</Material>
	<Geometry>
		<Nodes>
			<node id="1">  5.0000000e-01,  0.0000000e+00,  0.0000000e+00</node>
			<node id="2">  5.2500000e-01,  0.0000000e+00,  0.0000000e+00</node>
			<node id="3">  5.5000000e-01,  0.0000000e+00,  0.0000000e+00</node>
			<node id="4">  5.7500000e-01,  0.0000000e+00,  0.0000000e+00</node>
			<node id="5">  6.0000000e-01,  0.0000000e+00,  0.0000000e+00</node>
			<node id="6">  6.2500000e-01,  0.0000000e+00,  0.0000000e+00</node>
			<node id="7">  6.5000000e-01,  0.0000000e+00,  0.0000000e+00</node>
			<node id="8">  6.7500000e-01,  0.0000000e+00,  0.0000000e+00</node>
			<node id="9">  7.0000000e-01,  0.0000000e+00,  0.0000000e+00</node>
			<node id="10">  7.2500000e-01,  0.0000000e+00,  0.0000000e+00</node>
			<node id="11">  7.5000000e-01,  0.0000000e+00,  0.0000000e+00</node>
			<node id="12">  7.7500000e-01,  0.0000000e+00,  0.0000000e+00</node>
			<node id="13">  8.0000000e-01,  0.0000000e+00,  0.0000000e+00</node>
			<node id="14">  8.2500000e-01,  0.0000000e+00,  0.0000000e+00</node>
			<node id="15">  8.5000000e-01,  0.0000000e+00,  0.0000000e+00</node>
			<node id="16">  8.7500000e-01,  0.0000000e+00,  0.0000000e+00</node>
			<node id="17">  9.0000000e-01,  0.0000000e+00,  0.0000000e+00</node>
			<node id="18">  9.2500000e-01,  0.0000000e+00,  0.0000000e+00</node>
			<node id="19">  9.5000000e-01,  0.0000000e+00,  0.0000000e+00</node>
			<node id="20">  9.7500000e-01,  0.0000000e+00,  0.0000000e+00</node>
<!-- ... 3046 like lines cut -->
		</Nodes>
		<Elements>
			<hex8 id="1" mat="1">     1,     2,    23,    22,  1534,  1535,  1556,  1555</hex8>
			<hex8 id="2" mat="1">     2,     3,    24,    23,  1535,  1536,  1557,  1556</hex8>
			<hex8 id="3" mat="1">     3,     4,    25,    24,  1536,  1537,  1558,  1557</hex8>
			<hex8 id="4" mat="1">     4,     5,    26,    25,  1537,  1538,  1559,  1558</hex8>
			<hex8 id="5" mat="1">     5,     6,    27,    26,  1538,  1539,  1560,  1559</hex8>
			<hex8 id="6" mat="1">     6,     7,    28,    27,  1539,  1540,  1561,  1560</hex8>
			<hex8 id="7" mat="1">     7,     8,    29,    28,  1540,  1541,  1562,  1561</hex8>
			<hex8 id="8" mat="1">     8,     9,    30,    29,  1541,  1542,  1563,  1562</hex8>
			<hex8 id="9" mat="1">     9,    10,    31,    30,  1542,  1543,  1564,  1563</hex8>
			<hex8 id="10" mat="1">    10,    11,    32,    31,  1543,  1544,  1565,  1564</hex8>
			<hex8 id="11" mat="1">    11,    12,    33,    32,  1544,  1545,  1566,  1565</hex8>
			<hex8 id="12" mat="1">    12,    13,    34,    33,  1545,  1546,  1567,  1566</hex8>
			<hex8 id="13" mat="1">    13,    14,    35,    34,  1546,  1547,  1568,  1567</hex8>
			<hex8 id="14" mat="1">    14,    15,    36,    35,  1547,  1548,  1569,  1568</hex8>
			<hex8 id="15" mat="1">    15,    16,    37,    36,  1548,  1549,  1570,  1569</hex8>
			<hex8 id="16" mat="1">    16,    17,    38,    37,  1549,  1550,  1571,  1570</hex8>
			<hex8 id="17" mat="1">    17,    18,    39,    38,  1550,  1551,  1572,  1571</hex8>
			<hex8 id="18" mat="1">    18,    19,    40,    39,  1551,  1552,  1573,  1572</hex8>
			<hex8 id="19" mat="1">    19,    20,    41,    40,  1552,  1553,  1574,  1573</hex8>
			<hex8 id="20" mat="1">    20,    21,    42,    41,  1553,  1554,  1575,  1574</hex8>
<!-- ... 1420 like lines cut -->
		</Elements>
	</Geometry>
	<Boundary>
		<fix>
			<node id="1" bc="z"/>
			<node id="2" bc="z"/>
			<node id="3" bc="z"/>
			<node id="4" bc="z"/>
			<node id="5" bc="z"/>
			<node id="6" bc="z"/>
			<node id="7" bc="z"/>
			<node id="8" bc="z"/>
			<node id="9" bc="z"/>
			<node id="10" bc="z"/>
			<node id="11" bc="z"/>
			<node id="12" bc="z"/>
			<node id="13" bc="z"/>
			<node id="14" bc="z"/>
			<node id="15" bc="z"/>
			<node id="16" bc="z"/>
			<node id="17" bc="z"/>
			<node id="18" bc="z"/>
			<node id="19" bc="z"/>
			<node id="20" bc="z"/>
<!-- ... 6112 like lines cut -->
		</fix>
		<fix>
			<node id="777" bc="y"/>
			<node id="2310" bc="y"/>
		</fix>
		<fix>
			<node id="757" bc="x"/>
			<node id="758" bc="x"/>
			<node id="759" bc="x"/>
			<node id="760" bc="x"/>
			<node id="761" bc="x"/>
			<node id="762" bc="x"/>
			<node id="763" bc="x"/>
			<node id="764" bc="x"/>
			<node id="765" bc="x"/>
			<node id="766" bc="x"/>
			<node id="767" bc="x"/>
			<node id="768" bc="x"/>
			<node id="769" bc="x"/>
			<node id="770" bc="x"/>
			<node id="771" bc="x"/>
			<node id="772" bc="x"/>
			<node id="773" bc="x"/>
			<node id="774" bc="x"/>
			<node id="775" bc="x"/>
			<node id="776" bc="x"/>
<!-- ... 22 like lines cut -->
		</fix>
	</Boundary>
	<Loads>
		<normal_traction type="nonlinear" traction="mixture">
			<quad4 id="1" lc="2" scale="1">    22,     1,  1534,  1555</quad4>
			<quad4 id="2" lc="2" scale="1">    43,    22,  1555,  1576</quad4>
			<quad4 id="3" lc="2" scale="1">    64,    43,  1576,  1597</quad4>
			<quad4 id="4" lc="2" scale="1">    85,    64,  1597,  1618</quad4>
			<quad4 id="5" lc="2" scale="1">   106,    85,  1618,  1639</quad4>
			<quad4 id="6" lc="2" scale="1">   127,   106,  1639,  1660</quad4>
			<quad4 id="7" lc="2" scale="1">   148,   127,  1660,  1681</quad4>
			<quad4 id="8" lc="2" scale="1">   169,   148,  1681,  1702</quad4>
			<quad4 id="9" lc="2" scale="1">   190,   169,  1702,  1723</quad4>
			<quad4 id="10" lc="2" scale="1">   211,   190,  1723,  1744</quad4>
			<quad4 id="11" lc="2" scale="1">   232,   211,  1744,  1765</quad4>
			<quad4 id="12" lc="2" scale="1">   253,   232,  1765,  1786</quad4>
			<quad4 id="13" lc="2" scale="1">   274,   253,  1786,  1807</quad4>
			<quad4 id="14" lc="2" scale="1">   295,   274,  1807,  1828</quad4>
			<quad4 id="15" lc="2" scale="1">   316,   295,  1828,  1849</quad4>
			<quad4 id="16" lc="2" scale="1">   337,   316,  1849,  1870</quad4>
			<quad4 id="17" lc="2" scale="1">   358,   337,  1870,  1891</quad4>
			<quad4 id="18" lc="2" scale="1">   379,   358,  1891,  1912</quad4>
			<quad4 id="19" lc="2" scale="1">   400,   379,  1912,  1933</quad4>
			<quad4 id="20" lc="2" scale="1">   421,   400,  1933,  1954</quad4>
<!-- ... 52 like lines cut -->
		</normal_traction>
	</Loads>
	<LoadData>
		<loadcurve id="1" type="step">
			<loadpoint>0,0</loadpoint>
			<loadpoint>0.5,0.5</loadpoint>
			<loadpoint>1,0.5</loadpoint>
		</loadcurve>
		<loadcurve id="2" type="linear">
			<loadpoint>0,0</loadpoint>
			<loadpoint>0.5,-1</loadpoint>
			<loadpoint>1,0</loadpoint>
		</loadcurve>
		<loadcurve id="3" type="linear">
			<loadpoint>0,0</loadpoint>
			<loadpoint>1,0</loadpoint>
		</loadcurve>
	</LoadData>
	<Output>
		<plotfile type="febio">
			<var type="displacement"/>
			<var type="relative volume"/>
			<var type="stress"/>
		</plotfile>
        <logfile>
          <element_data data="sy">141</element_data>
        </logfile>
	</Output>
	<Step>
		<Module type="solid"/>
		<Control>
			<time_steps>10</time_steps>
			<step_size>0.1</step_size>
			<max_refs>15</max_refs>
			<max_ups>0</max_ups>
			<dtol>0.001</dtol>
			<etol>0.01</etol>
			<rtol>0</rtol>
			<lstol>0.9</lstol>
			<time_stepper>
				<dtmin>0.01</dtmin>
				<dtmax lc="1"></dtmax>
				<max_retries>5</max_retries>
				<opt_iter>10</opt_iter>
			</time_stepper>
			<analysis type="static"/>
		</Control>
		<Boundary>
			<prescribe>
				<node id="778" bc="x" lc="3">1</node>
				<node id="779" bc="x" lc="3">1</node>
				<node id="780" bc="x" lc="3">1</node>
				<node id="781" bc="x" lc="3">1</node>
				<node id="782" bc="x" lc="3">1</node>
				<node id="783" bc="x" lc="3">1</node>
				<node id="784" bc="x" lc="3">1</node>
				<node id="785" bc="x" lc="3">1</node>
				<node id="786" bc="x" lc="3">1</node>
				<node id="787" bc="x" lc="3">1</node>
				<node id="788" bc="x" lc="3">1</node>
				<node id="789" bc="x" lc="3">1</node>
				<node id="790" bc="x" lc="3">1</node>
				<node id="791" bc="x" lc="3">1</node>
				<node id="792" bc="x" lc="3">1</node>
				<node id="793" bc="x" lc="3">1</node>
				<node id="794" bc="x" lc="3">1</node>
				<node id="795" bc="x" lc="3">1</node>
				<node id="796" bc="x" lc="3">1</node>
				<node id="797" bc="x" lc="3">1</node>
<!-- ... 22 like lines cut -->
			</prescribe>
		</Boundary>
	</Step>
	<Step>
		<Module type="solid"/>
		<Control>
			<time_steps>1</time_steps>
			<step_size>0.1</step_size>
			<max_refs>15</max_refs>
			<max_ups>0</max_ups>
			<dtol>0.001</dtol>
			<etol>0.01</etol>
			<rtol>0</rtol>
			<lstol>0.9</lstol>
			<time_stepper>
				<dtmin>0.01</dtmin>
				<dtmax>0.1</dtmax>
				<max_retries>5</max_retries>
				<opt_iter>10</opt_iter>
			</time_stepper>
			<analysis type="static"/>
		</Control>
	</Step>
</febio_spec>
