<?xml version="1.0" encoding="ISO-8859-1"?>
<!--
Problem Description:
	A 10x10x1 element plate has nodes 1 and 2 constrained in x,y,z.  All other nodes are constrained
	in the z-direction.  Nodes 241 and 242 have a prescribed y-displacement of 1 unit at t=1.  The
	x-displacement of nodes 21 and 22 is the same as the y-displacement of nodes 241 and 242.
Main Features:
	Linear constraints
Secondary Features:
	
Materials:
	Neo-Hookean
Degrees of Freedom: 598
Results:
	Steps Completed: 10
	Equilibrium Iterations: 30
	Right Hand Evaluations: 40
	Siffness Reformations: 30
	Other:
		At time t=1 the coordinates of node 22 are: x=-4, y=5.659, z=1.
Comments:
	
-->
<febio_spec version="1.2">
	<Control>
		<title>Linear Constraints</title>
		<time_steps>10</time_steps>
		<step_size>0.1</step_size>
		<max_refs>15</max_refs>
		<max_ups>0</max_ups>
		<dtol>0.001</dtol>
		<etol>0.01</etol>
		<rtol>0</rtol>
		<lstol>0.9</lstol>
		<pressure_stiffness>1</pressure_stiffness>
		<time_stepper>
			<dtmin>0.01</dtmin>
			<dtmax>0.1</dtmax>
			<max_retries>5</max_retries>
			<opt_iter>10</opt_iter>
		</time_stepper>
		<plot_level>PLOT_DEFAULT</plot_level>
	</Control>
	<Material>
		<material id="1" name="Material 2" type="neo-Hookean">
			<E>1</E>
			<v>0</v>
		</material>
	</Material>
	<Geometry>
		<Nodes>
			<node id="1">-5.0000000e+000,-5.0000000e+000, 0.0000000e+000</node>
			<node id="2">-5.0000000e+000,-5.0000000e+000, 1.0000000e+000</node>
			<node id="3">-5.0000000e+000,-4.0000000e+000, 0.0000000e+000</node>
			<node id="4">-5.0000000e+000,-4.0000000e+000, 1.0000000e+000</node>
			<node id="5">-5.0000000e+000,-3.0000000e+000, 0.0000000e+000</node>
			<node id="6">-5.0000000e+000,-3.0000000e+000, 1.0000000e+000</node>
			<node id="7">-5.0000000e+000,-2.0000000e+000, 0.0000000e+000</node>
			<node id="8">-5.0000000e+000,-2.0000000e+000, 1.0000000e+000</node>
			<node id="9">-5.0000000e+000,-1.0000000e+000, 0.0000000e+000</node>
			<node id="10">-5.0000000e+000,-1.0000000e+000, 1.0000000e+000</node>
			<node id="11">-5.0000000e+000, 0.0000000e+000, 0.0000000e+000</node>
			<node id="12">-5.0000000e+000, 0.0000000e+000, 1.0000000e+000</node>
			<node id="13">-5.0000000e+000, 1.0000000e+000, 0.0000000e+000</node>
			<node id="14">-5.0000000e+000, 1.0000000e+000, 1.0000000e+000</node>
			<node id="15">-5.0000000e+000, 2.0000000e+000, 0.0000000e+000</node>
			<node id="16">-5.0000000e+000, 2.0000000e+000, 1.0000000e+000</node>
			<node id="17">-5.0000000e+000, 3.0000000e+000, 0.0000000e+000</node>
			<node id="18">-5.0000000e+000, 3.0000000e+000, 1.0000000e+000</node>
			<node id="19">-5.0000000e+000, 4.0000000e+000, 0.0000000e+000</node>
			<node id="20">-5.0000000e+000, 4.0000000e+000, 1.0000000e+000</node>
<!-- ... 222 like lines cut -->
		</Nodes>
		<Elements>
			<hex8 id="1" mat="1">     1,    23,    25,     3,     2,    24,    26,     4</hex8>
			<hex8 id="2" mat="1">     3,    25,    27,     5,     4,    26,    28,     6</hex8>
			<hex8 id="3" mat="1">     5,    27,    29,     7,     6,    28,    30,     8</hex8>
			<hex8 id="4" mat="1">     7,    29,    31,     9,     8,    30,    32,    10</hex8>
			<hex8 id="5" mat="1">     9,    31,    33,    11,    10,    32,    34,    12</hex8>
			<hex8 id="6" mat="1">    11,    33,    35,    13,    12,    34,    36,    14</hex8>
			<hex8 id="7" mat="1">    13,    35,    37,    15,    14,    36,    38,    16</hex8>
			<hex8 id="8" mat="1">    15,    37,    39,    17,    16,    38,    40,    18</hex8>
			<hex8 id="9" mat="1">    17,    39,    41,    19,    18,    40,    42,    20</hex8>
			<hex8 id="10" mat="1">    19,    41,    43,    21,    20,    42,    44,    22</hex8>
			<hex8 id="11" mat="1">    23,    45,    47,    25,    24,    46,    48,    26</hex8>
			<hex8 id="12" mat="1">    25,    47,    49,    27,    26,    48,    50,    28</hex8>
			<hex8 id="13" mat="1">    27,    49,    51,    29,    28,    50,    52,    30</hex8>
			<hex8 id="14" mat="1">    29,    51,    53,    31,    30,    52,    54,    32</hex8>
			<hex8 id="15" mat="1">    31,    53,    55,    33,    32,    54,    56,    34</hex8>
			<hex8 id="16" mat="1">    33,    55,    57,    35,    34,    56,    58,    36</hex8>
			<hex8 id="17" mat="1">    35,    57,    59,    37,    36,    58,    60,    38</hex8>
			<hex8 id="18" mat="1">    37,    59,    61,    39,    38,    60,    62,    40</hex8>
			<hex8 id="19" mat="1">    39,    61,    63,    41,    40,    62,    64,    42</hex8>
			<hex8 id="20" mat="1">    41,    63,    65,    43,    42,    64,    66,    44</hex8>
<!-- ... 80 like lines cut -->
		</Elements>
	</Geometry>
	<Boundary>
		<fix>
			<node id="1" bc="xyz"></node>
			<node id="2" bc="xyz"></node>
			<node id="3" bc="z"></node>
			<node id="5" bc="z"></node>
			<node id="7" bc="z"></node>
			<node id="9" bc="z"></node>
			<node id="11" bc="z"></node>
			<node id="13" bc="z"></node>
			<node id="15" bc="z"></node>
			<node id="17" bc="z"></node>
			<node id="19" bc="z"></node>
			<node id="21" bc="z"></node>
			<node id="23" bc="z"></node>
			<node id="25" bc="z"></node>
			<node id="27" bc="z"></node>
			<node id="29" bc="z"></node>
			<node id="31" bc="z"></node>
			<node id="33" bc="z"></node>
			<node id="35" bc="z"></node>
			<node id="37" bc="z"></node>
			<node id="39" bc="z"></node>
			<node id="41" bc="z"></node>
<!-- ... 100 like lines cut -->
		</fix>
		<prescribe>
			<node id="241" bc="y" lc="1">1</node>
			<node id="242" bc="y" lc="1">1</node>
		</prescribe>
		<linear_constraint node="22" bc="x">
			<node id="242" bc="y">1</node>
		</linear_constraint>
		<linear_constraint node="21" bc="x">
			<node id="242" bc="y">1</node>
		</linear_constraint>
	</Boundary>
	<LoadData>
		<loadcurve id="1">
			<loadpoint>0,0</loadpoint>
			<loadpoint>1,1</loadpoint>
		</loadcurve>
	</LoadData>
	<Output>
		<plotfile type="febio"></plotfile>
		<logfile>
			<element_data data="Ey">100</element_data>
		</logfile>
	</Output>
</febio_spec>
