<?xml version="1.0" encoding="ISO-8859-1"?>
<!--
Problem Description:
	An 8x4x4 element block has its left end nodes constrained in x,y,z and its right end
	nodes constrained in y,z with a prescribed displacement of 1 unit in the x-direction.
Main Features:
	Must point controller
	Plot must points
Secondary Features:
	
Materials:
	Mooney-Rivlin
Degrees of Freedom: 550
Results:
	Steps Completed: 12
	Equilibrium Iterations: 66
	Right Hand Evaluations: 78
	Siffness Reformations: 12
	Other:
		The nodes other than those on the ends contract in the y and z directions 0.116
		units at time t=1.
Comments:
	
-->
<febio_spec version="1.2">
	<Control>
		<title>Must Points</title>
		<time_steps>10</time_steps>
		<step_size>0.1</step_size>
		<max_refs>15</max_refs>
		<max_ups>10</max_ups>
		<dtol>0.001</dtol>
		<etol>0.01</etol>
		<rtol>0</rtol>
		<lstol>0.9</lstol>
		<pressure_stiffness>1</pressure_stiffness>
		<time_stepper>
			<dtmin>0.01</dtmin>
			<dtmax lc="1"></dtmax>
			<max_retries>5</max_retries>
			<opt_iter>10</opt_iter>
		</time_stepper>
		<plot_level>PLOT_MUST_POINTS</plot_level>
	</Control>
	<Material>
		<material id="1" name="Material 1" type="Mooney-Rivlin">
			<c1>1</c1>
			<c2>0</c2>
			<k>1000</k>
		</material>
	</Material>
	<Geometry>
		<Nodes>
			<node id="1">-1.0000000e+000,-5.0000000e-001, 0.0000000e+000</node>
			<node id="2">-1.0000000e+000,-5.0000000e-001, 2.5000000e-001</node>
			<node id="3">-1.0000000e+000,-5.0000000e-001, 5.0000000e-001</node>
			<node id="4">-1.0000000e+000,-5.0000000e-001, 7.5000000e-001</node>
			<node id="5">-1.0000000e+000,-5.0000000e-001, 1.0000000e+000</node>
			<node id="6">-1.0000000e+000,-2.5000000e-001, 0.0000000e+000</node>
			<node id="7">-1.0000000e+000,-2.5000000e-001, 2.5000000e-001</node>
			<node id="8">-1.0000000e+000,-2.5000000e-001, 5.0000000e-001</node>
			<node id="9">-1.0000000e+000,-2.5000000e-001, 7.5000000e-001</node>
			<node id="10">-1.0000000e+000,-2.5000000e-001, 1.0000000e+000</node>
			<node id="11">-1.0000000e+000, 0.0000000e+000, 0.0000000e+000</node>
			<node id="12">-1.0000000e+000, 0.0000000e+000, 2.5000000e-001</node>
			<node id="13">-1.0000000e+000, 0.0000000e+000, 5.0000000e-001</node>
			<node id="14">-1.0000000e+000, 0.0000000e+000, 7.5000000e-001</node>
			<node id="15">-1.0000000e+000, 0.0000000e+000, 1.0000000e+000</node>
			<node id="16">-1.0000000e+000, 2.5000000e-001, 0.0000000e+000</node>
			<node id="17">-1.0000000e+000, 2.5000000e-001, 2.5000000e-001</node>
			<node id="18">-1.0000000e+000, 2.5000000e-001, 5.0000000e-001</node>
			<node id="19">-1.0000000e+000, 2.5000000e-001, 7.5000000e-001</node>
			<node id="20">-1.0000000e+000, 2.5000000e-001, 1.0000000e+000</node>
<!-- ... 205 like lines cut -->
		</Nodes>
		<Elements>
			<hex8 id="1" mat="1">     1,    26,    31,     6,     2,    27,    32,     7</hex8>
			<hex8 id="2" mat="1">     2,    27,    32,     7,     3,    28,    33,     8</hex8>
			<hex8 id="3" mat="1">     3,    28,    33,     8,     4,    29,    34,     9</hex8>
			<hex8 id="4" mat="1">     4,    29,    34,     9,     5,    30,    35,    10</hex8>
			<hex8 id="5" mat="1">     6,    31,    36,    11,     7,    32,    37,    12</hex8>
			<hex8 id="6" mat="1">     7,    32,    37,    12,     8,    33,    38,    13</hex8>
			<hex8 id="7" mat="1">     8,    33,    38,    13,     9,    34,    39,    14</hex8>
			<hex8 id="8" mat="1">     9,    34,    39,    14,    10,    35,    40,    15</hex8>
			<hex8 id="9" mat="1">    11,    36,    41,    16,    12,    37,    42,    17</hex8>
			<hex8 id="10" mat="1">    12,    37,    42,    17,    13,    38,    43,    18</hex8>
			<hex8 id="11" mat="1">    13,    38,    43,    18,    14,    39,    44,    19</hex8>
			<hex8 id="12" mat="1">    14,    39,    44,    19,    15,    40,    45,    20</hex8>
			<hex8 id="13" mat="1">    16,    41,    46,    21,    17,    42,    47,    22</hex8>
			<hex8 id="14" mat="1">    17,    42,    47,    22,    18,    43,    48,    23</hex8>
			<hex8 id="15" mat="1">    18,    43,    48,    23,    19,    44,    49,    24</hex8>
			<hex8 id="16" mat="1">    19,    44,    49,    24,    20,    45,    50,    25</hex8>
			<hex8 id="17" mat="1">    26,    51,    56,    31,    27,    52,    57,    32</hex8>
			<hex8 id="18" mat="1">    27,    52,    57,    32,    28,    53,    58,    33</hex8>
			<hex8 id="19" mat="1">    28,    53,    58,    33,    29,    54,    59,    34</hex8>
			<hex8 id="20" mat="1">    29,    54,    59,    34,    30,    55,    60,    35</hex8>
<!-- ... 108 like lines cut -->
		</Elements>
	</Geometry>
	<Boundary>
		<fix>
			<node id="1" bc="xyz"></node>
			<node id="2" bc="xyz"></node>
			<node id="3" bc="xyz"></node>
			<node id="4" bc="xyz"></node>
			<node id="5" bc="xyz"></node>
			<node id="6" bc="xyz"></node>
			<node id="7" bc="xyz"></node>
			<node id="8" bc="xyz"></node>
			<node id="9" bc="xyz"></node>
			<node id="10" bc="xyz"></node>
			<node id="11" bc="xyz"></node>
			<node id="12" bc="xyz"></node>
			<node id="13" bc="xyz"></node>
			<node id="14" bc="xyz"></node>
			<node id="15" bc="xyz"></node>
			<node id="16" bc="xyz"></node>
			<node id="17" bc="xyz"></node>
			<node id="18" bc="xyz"></node>
			<node id="19" bc="xyz"></node>
			<node id="20" bc="xyz"></node>
<!-- ... 5 like lines cut -->
			<node id="201" bc="yz"></node>
			<node id="202" bc="yz"></node>
			<node id="203" bc="yz"></node>
			<node id="204" bc="yz"></node>
			<node id="205" bc="yz"></node>
			<node id="206" bc="yz"></node>
			<node id="207" bc="yz"></node>
			<node id="208" bc="yz"></node>
			<node id="209" bc="yz"></node>
			<node id="210" bc="yz"></node>
			<node id="211" bc="yz"></node>
			<node id="212" bc="yz"></node>
			<node id="213" bc="yz"></node>
			<node id="214" bc="yz"></node>
			<node id="215" bc="yz"></node>
			<node id="216" bc="yz"></node>
			<node id="217" bc="yz"></node>
			<node id="218" bc="yz"></node>
			<node id="219" bc="yz"></node>
			<node id="220" bc="yz"></node>
<!-- ... 5 like lines cut -->
		</fix>
		<prescribe>
			<node id="201" bc="x" lc="2">1</node>
			<node id="202" bc="x" lc="2">1</node>
			<node id="203" bc="x" lc="2">1</node>
			<node id="204" bc="x" lc="2">1</node>
			<node id="205" bc="x" lc="2">1</node>
			<node id="206" bc="x" lc="2">1</node>
			<node id="207" bc="x" lc="2">1</node>
			<node id="208" bc="x" lc="2">1</node>
			<node id="209" bc="x" lc="2">1</node>
			<node id="210" bc="x" lc="2">1</node>
			<node id="211" bc="x" lc="2">1</node>
			<node id="212" bc="x" lc="2">1</node>
			<node id="213" bc="x" lc="2">1</node>
			<node id="214" bc="x" lc="2">1</node>
			<node id="215" bc="x" lc="2">1</node>
			<node id="216" bc="x" lc="2">1</node>
			<node id="217" bc="x" lc="2">1</node>
			<node id="218" bc="x" lc="2">1</node>
			<node id="219" bc="x" lc="2">1</node>
			<node id="220" bc="x" lc="2">1</node>
<!-- ... 5 like lines cut -->
		</prescribe>
	</Boundary>
	<LoadData>
		<loadcurve id="1" type="step">
			<loadpoint>0,0</loadpoint>
			<loadpoint>0.5,0.2</loadpoint>
			<loadpoint>1,0.1</loadpoint>
		</loadcurve>
		<loadcurve id="2">
			<loadpoint>0,0</loadpoint>
			<loadpoint>1,1</loadpoint>
		</loadcurve>
	</LoadData>
	<Output>
		<plotfile type="febio"></plotfile>
		<logfile>
			<element_data data="Ey">1</element_data>
		</logfile>
	</Output>
</febio_spec>
