<?xml version="1.0" encoding="ISO-8859-1"?>
<!--
Problem Description:
	A disk three elements thick with it's edge nodes constrained in x,y,z, has a
	sinusoidal pressure applied to time t=1.
Main Features:
	Pressure
Secondary Features:
	Sinusoidal loadcurve
Materials:
	Neo-Hookean
Degrees of Freedom: 3660
Results:
	Steps Completed: 16
	Equilibrium Iterations: 105
	Right Hand Evaluations: 134
	Siffness Reformations: 18
	Other:
		The maximum z-displacement is 0.349 at time t=0.727
Comments:
	
-->
<febio_spec version="1.2">
	<Control>
		<title>Sinusoidal Pressure</title>
		<time_steps>50</time_steps>
		<step_size>0.02</step_size>
		<max_refs>15</max_refs>
		<max_ups>10</max_ups>
		<dtol>0.001</dtol>
		<etol>0.01</etol>
		<rtol>0</rtol>
		<lstol>0.9</lstol>
		<time_stepper>
			<dtmin>0.005</dtmin>
			<dtmax>0.1</dtmax>
			<max_retries>5</max_retries>
			<opt_iter>10</opt_iter>
		</time_stepper>
	</Control>
	<Material>
		<material id="1" name="Material 1" type="neo-Hookean">
			<E>200</E>
			<v>0</v>
		</material>
	</Material>
	<Geometry>
		<Nodes>
			<node id="1">-3.5355339e-001,-3.5355339e-001, 0.0000000e+000</node>
			<node id="2">-3.5355339e-001,-2.6516504e-001, 0.0000000e+000</node>
			<node id="3">-3.5355339e-001,-1.7677670e-001, 0.0000000e+000</node>
			<node id="4">-3.5355339e-001,-8.8388348e-002, 0.0000000e+000</node>
			<node id="5">-3.5355339e-001, 0.0000000e+000, 0.0000000e+000</node>
			<node id="6">-3.5355339e-001, 8.8388348e-002, 0.0000000e+000</node>
			<node id="7">-3.5355339e-001, 1.7677670e-001, 0.0000000e+000</node>
			<node id="8">-3.5355339e-001, 2.6516504e-001, 0.0000000e+000</node>
			<node id="9">-3.5355339e-001, 3.5355339e-001, 0.0000000e+000</node>
			<node id="10">-2.6516504e-001,-3.5355339e-001, 0.0000000e+000</node>
			<node id="11">-2.6516504e-001,-2.6516504e-001, 0.0000000e+000</node>
			<node id="12">-2.6516504e-001,-1.7677670e-001, 0.0000000e+000</node>
			<node id="13">-2.6516504e-001,-8.8388348e-002, 0.0000000e+000</node>
			<node id="14">-2.6516504e-001, 0.0000000e+000, 0.0000000e+000</node>
			<node id="15">-2.6516504e-001, 8.8388348e-002, 0.0000000e+000</node>
			<node id="16">-2.6516504e-001, 1.7677670e-001, 0.0000000e+000</node>
			<node id="17">-2.6516504e-001, 2.6516504e-001, 0.0000000e+000</node>
			<node id="18">-2.6516504e-001, 3.5355339e-001, 0.0000000e+000</node>
			<node id="19">-1.7677670e-001,-3.5355339e-001, 0.0000000e+000</node>
			<node id="20">-1.7677670e-001,-2.6516504e-001, 0.0000000e+000</node>
<!-- ... 1328 like lines cut -->
		</Nodes>
		<Elements>
			<hex8 id="1" mat="1">     1,    10,    11,     2,   338,   347,   348,   339</hex8>
			<hex8 id="2" mat="1">     2,    11,    12,     3,   339,   348,   349,   340</hex8>
			<hex8 id="3" mat="1">     3,    12,    13,     4,   340,   349,   350,   341</hex8>
			<hex8 id="4" mat="1">     4,    13,    14,     5,   341,   350,   351,   342</hex8>
			<hex8 id="5" mat="1">     5,    14,    15,     6,   342,   351,   352,   343</hex8>
			<hex8 id="6" mat="1">     6,    15,    16,     7,   343,   352,   353,   344</hex8>
			<hex8 id="7" mat="1">     7,    16,    17,     8,   344,   353,   354,   345</hex8>
			<hex8 id="8" mat="1">     8,    17,    18,     9,   345,   354,   355,   346</hex8>
			<hex8 id="9" mat="1">    10,    19,    20,    11,   347,   356,   357,   348</hex8>
			<hex8 id="10" mat="1">    11,    20,    21,    12,   348,   357,   358,   349</hex8>
			<hex8 id="11" mat="1">    12,    21,    22,    13,   349,   358,   359,   350</hex8>
			<hex8 id="12" mat="1">    13,    22,    23,    14,   350,   359,   360,   351</hex8>
			<hex8 id="13" mat="1">    14,    23,    24,    15,   351,   360,   361,   352</hex8>
			<hex8 id="14" mat="1">    15,    24,    25,    16,   352,   361,   362,   353</hex8>
			<hex8 id="15" mat="1">    16,    25,    26,    17,   353,   362,   363,   354</hex8>
			<hex8 id="16" mat="1">    17,    26,    27,    18,   354,   363,   364,   355</hex8>
			<hex8 id="17" mat="1">    19,    28,    29,    20,   356,   365,   366,   357</hex8>
			<hex8 id="18" mat="1">    20,    29,    30,    21,   357,   366,   367,   358</hex8>
			<hex8 id="19" mat="1">    21,    30,    31,    22,   358,   367,   368,   359</hex8>
			<hex8 id="20" mat="1">    22,    31,    32,    23,   359,   368,   369,   360</hex8>
<!-- ... 940 like lines cut -->
		</Elements>
	</Geometry>
	<Boundary>
		<fix>
			<node id="89" bc="xyz"></node>
			<node id="97" bc="xyz"></node>
			<node id="105" bc="xyz"></node>
			<node id="113" bc="xyz"></node>
			<node id="121" bc="xyz"></node>
			<node id="129" bc="xyz"></node>
			<node id="137" bc="xyz"></node>
			<node id="145" bc="xyz"></node>
			<node id="153" bc="xyz"></node>
			<node id="161" bc="xyz"></node>
			<node id="169" bc="xyz"></node>
			<node id="177" bc="xyz"></node>
			<node id="185" bc="xyz"></node>
			<node id="193" bc="xyz"></node>
			<node id="201" bc="xyz"></node>
			<node id="209" bc="xyz"></node>
			<node id="217" bc="xyz"></node>
			<node id="225" bc="xyz"></node>
			<node id="233" bc="xyz"></node>
			<node id="241" bc="xyz"></node>
<!-- ... 108 like lines cut -->
		</fix>
	</Boundary>
	<Loads>
		<pressure>
			<quad4 id="1" lc="1" scale="1">  1012,  1021,  1022,  1013</quad4>
			<quad4 id="2" lc="1" scale="1">  1013,  1022,  1023,  1014</quad4>
			<quad4 id="3" lc="1" scale="1">  1014,  1023,  1024,  1015</quad4>
			<quad4 id="4" lc="1" scale="1">  1015,  1024,  1025,  1016</quad4>
			<quad4 id="5" lc="1" scale="1">  1016,  1025,  1026,  1017</quad4>
			<quad4 id="6" lc="1" scale="1">  1017,  1026,  1027,  1018</quad4>
			<quad4 id="7" lc="1" scale="1">  1018,  1027,  1028,  1019</quad4>
			<quad4 id="8" lc="1" scale="1">  1019,  1028,  1029,  1020</quad4>
			<quad4 id="9" lc="1" scale="1">  1021,  1030,  1031,  1022</quad4>
			<quad4 id="10" lc="1" scale="1">  1022,  1031,  1032,  1023</quad4>
			<quad4 id="11" lc="1" scale="1">  1023,  1032,  1033,  1024</quad4>
			<quad4 id="12" lc="1" scale="1">  1024,  1033,  1034,  1025</quad4>
			<quad4 id="13" lc="1" scale="1">  1025,  1034,  1035,  1026</quad4>
			<quad4 id="14" lc="1" scale="1">  1026,  1035,  1036,  1027</quad4>
			<quad4 id="15" lc="1" scale="1">  1027,  1036,  1037,  1028</quad4>
			<quad4 id="16" lc="1" scale="1">  1028,  1037,  1038,  1029</quad4>
			<quad4 id="17" lc="1" scale="1">  1030,  1039,  1040,  1031</quad4>
			<quad4 id="18" lc="1" scale="1">  1031,  1040,  1041,  1032</quad4>
			<quad4 id="19" lc="1" scale="1">  1032,  1041,  1042,  1033</quad4>
			<quad4 id="20" lc="1" scale="1">  1033,  1042,  1043,  1034</quad4>
<!-- ... 300 like lines cut -->
		</pressure>
	</Loads>
	<LoadData>
		<loadcurve id="1">
			<loadpoint>0,0</loadpoint>
			<loadpoint>0.0204082,0.127877</loadpoint>
			<loadpoint>0.0408163,0.253655</loadpoint>
			<loadpoint>0.0612245,0.375267</loadpoint>
			<loadpoint>0.0816327,0.490718</loadpoint>
			<loadpoint>0.102041,0.598111</loadpoint>
			<loadpoint>0.122449,0.695683</loadpoint>
			<loadpoint>0.142857,0.781831</loadpoint>
			<loadpoint>0.163265,0.855143</loadpoint>
			<loadpoint>0.183673,0.914413</loadpoint>
			<loadpoint>0.204082,0.958668</loadpoint>
			<loadpoint>0.22449,0.987182</loadpoint>
			<loadpoint>0.244898,0.999486</loadpoint>
			<loadpoint>0.265306,0.995379</loadpoint>
			<loadpoint>0.285714,0.974928</loadpoint>
			<loadpoint>0.306122,0.938468</loadpoint>
			<loadpoint>0.326531,0.886599</loadpoint>
			<loadpoint>0.346939,0.820172</loadpoint>
			<loadpoint>0.367347,0.740278</loadpoint>
			<loadpoint>0.387755,0.648228</loadpoint>
<!-- ... 30 like lines cut -->
		</loadcurve>
	</LoadData>
	<Output>
		<plotfile type="febio"></plotfile>
		<logfile>
			<element_data data="Ez">890</element_data>
		</logfile>
	</Output>
</febio_spec>
