<?xml version="1.0" encoding="ISO-8859-1"?>
<!--
Problem Description:
	An element has its front (-y) nodes constrained in x,y,z and its rear (+y) nodes
	given a prescribed displacement of 1 unit in the x-direction at time t=1 for a
	shear strain.
Main Features:
	Prescribed displacement
Secondary Features:
	
Materials:
	Linear Elastic
Degrees of Freedom: 4
Results:
	Steps Completed: 10
	Equilibrium Iterations: 10
	Right Hand Evaluations: 20
	Siffness Reformations: 10
	Other:
		Min edge angle is 45 at time t=1.
Comments:
	
-->
<febio_spec version="1.2">
	<Control>
		<title>Shear Strain</title>
		<time_steps>10</time_steps>
		<step_size>0.1</step_size>
		<max_refs>15</max_refs>
		<max_ups>10</max_ups>
		<dtol>0.001</dtol>
		<etol>0.01</etol>
		<rtol>0</rtol>
		<lstol>0.9</lstol>
		<pressure_stiffness>1</pressure_stiffness>
		<time_stepper>
			<dtmin>0.01</dtmin>
			<dtmax lc="2"></dtmax>
			<max_retries>5</max_retries>
			<opt_iter>10</opt_iter>
		</time_stepper>
		<plot_level>PLOT_DEFAULT</plot_level>
	</Control>
	<Material>
		<material id="1" name="Material 1" type="linear elastic">
			<E>1</E>
			<v>0</v>
		</material>
	</Material>
	<Geometry>
		<Nodes>
			<node id="1">-5.0000000e-001,-5.0000000e-001, 0.0000000e+000</node>
			<node id="2">-5.0000000e-001,-5.0000000e-001, 1.0000000e+000</node>
			<node id="3">-5.0000000e-001, 5.0000000e-001, 0.0000000e+000</node>
			<node id="4">-5.0000000e-001, 5.0000000e-001, 1.0000000e+000</node>
			<node id="5"> 5.0000000e-001,-5.0000000e-001, 0.0000000e+000</node>
			<node id="6"> 5.0000000e-001,-5.0000000e-001, 1.0000000e+000</node>
			<node id="7"> 5.0000000e-001, 5.0000000e-001, 0.0000000e+000</node>
			<node id="8"> 5.0000000e-001, 5.0000000e-001, 1.0000000e+000</node>
		</Nodes>
		<Elements>
			<hex8 id="1" mat="1">     1,     5,     7,     3,     2,     6,     8,     4</hex8>
		</Elements>
	</Geometry>
	<Boundary>
		<fix>
			<node id="1" bc="xyz"></node>
			<node id="2" bc="xyz"></node>
			<node id="3" bc="yz"></node>
			<node id="4" bc="yz"></node>
			<node id="5" bc="xyz"></node>
			<node id="6" bc="xyz"></node>
			<node id="7" bc="yz"></node>
			<node id="8" bc="yz"></node>
		</fix>
		<prescribe>
			<node id="3" bc="x" lc="1">1</node>
			<node id="4" bc="x" lc="1">1</node>
			<node id="7" bc="x" lc="1">1</node>
			<node id="8" bc="x" lc="1">1</node>
		</prescribe>
	</Boundary>
	<LoadData>
		<loadcurve id="1">
			<loadpoint>0,0</loadpoint>
			<loadpoint>1,1</loadpoint>
		</loadcurve>
		<loadcurve id="2" type="step">
			<loadpoint>0,0</loadpoint>
			<loadpoint>0.5,0.1</loadpoint>
		</loadcurve>
	</LoadData>
	<Output>
		<plotfile type="febio"></plotfile>
		<logfile>
			<element_data data="Ey">1</element_data>
		</logfile>
	</Output>
</febio_spec>
