<?xml version="1.0" encoding="ISO-8859-1"?>
<!--
Problem Description:
	A 2-D quarter billet is compressed with 1/4th symmetrical representation using a
	prescribed y-displacement of 0.4 units on the -y nodes from time t=0 to t=1.
Main Features:
	Prescribed displacement with nodal constraints.
Secondary Features:
	
Materials:
	Neo-Hookean
Degrees of Freedom: 1220
Results:
	Steps Completed: 10
	Equilibrium Iterations: 37
	Right Hand Evaluations: 47
	Siffness Reformations: 37
	Other:
		
Comments:
	
-->
<febio_spec version="1.2">
	<Control>
		<title>Quarter Billet</title>
		<time_steps>10</time_steps>
		<step_size>0.1</step_size>
		<max_refs>15</max_refs>
		<max_ups>0</max_ups>
		<dtol>0.001</dtol>
		<etol>0.01</etol>
		<rtol>1e+010</rtol>
		<lstol>100</lstol>
		<pressure_stiffness>1</pressure_stiffness>
		<plot_level>PLOT_DEFAULT</plot_level>
	</Control>
	<Material>
		<material id="1" name="Material 1" type="neo-Hookean">
			<E>1</E>
			<v>0.49</v>
		</material>
	</Material>
	<Geometry>
		<Nodes>
			<node id="1"> 0.0000000e+000,-5.0000000e-001,-5.0000000e-002</node>
			<node id="2"> 5.0000000e-002,-5.0000000e-001,-5.0000000e-002</node>
			<node id="3"> 1.0000000e-001,-5.0000000e-001,-5.0000000e-002</node>
			<node id="4"> 1.5000000e-001,-5.0000000e-001,-5.0000000e-002</node>
			<node id="5"> 2.0000000e-001,-5.0000000e-001,-5.0000000e-002</node>
			<node id="6"> 2.5000000e-001,-5.0000000e-001,-5.0000000e-002</node>
			<node id="7"> 3.0000000e-001,-5.0000000e-001,-5.0000000e-002</node>
			<node id="8"> 3.5000000e-001,-5.0000000e-001,-5.0000000e-002</node>
			<node id="9"> 4.0000000e-001,-5.0000000e-001,-5.0000000e-002</node>
			<node id="10"> 4.5000000e-001,-5.0000000e-001,-5.0000000e-002</node>
			<node id="11"> 5.0000000e-001,-5.0000000e-001,-5.0000000e-002</node>
			<node id="12"> 0.0000000e+000,-4.5000000e-001,-5.0000000e-002</node>
			<node id="13"> 5.0000000e-002,-4.5000000e-001,-5.0000000e-002</node>
			<node id="14"> 1.0000000e-001,-4.5000000e-001,-5.0000000e-002</node>
			<node id="15"> 1.5000000e-001,-4.5000000e-001,-5.0000000e-002</node>
			<node id="16"> 2.0000000e-001,-4.5000000e-001,-5.0000000e-002</node>
			<node id="17"> 2.5000000e-001,-4.5000000e-001,-5.0000000e-002</node>
			<node id="18"> 3.0000000e-001,-4.5000000e-001,-5.0000000e-002</node>
			<node id="19"> 3.5000000e-001,-4.5000000e-001,-5.0000000e-002</node>
			<node id="20"> 4.0000000e-001,-4.5000000e-001,-5.0000000e-002</node>
<!-- ... 642 like lines cut -->
		</Nodes>
		<Elements>
			<hex8 id="1" mat="1">     1,     2,    13,    12,   122,   123,   134,   133</hex8>
			<hex8 id="2" mat="1">     2,     3,    14,    13,   123,   124,   135,   134</hex8>
			<hex8 id="3" mat="1">     3,     4,    15,    14,   124,   125,   136,   135</hex8>
			<hex8 id="4" mat="1">     4,     5,    16,    15,   125,   126,   137,   136</hex8>
			<hex8 id="5" mat="1">     5,     6,    17,    16,   126,   127,   138,   137</hex8>
			<hex8 id="6" mat="1">     6,     7,    18,    17,   127,   128,   139,   138</hex8>
			<hex8 id="7" mat="1">     7,     8,    19,    18,   128,   129,   140,   139</hex8>
			<hex8 id="8" mat="1">     8,     9,    20,    19,   129,   130,   141,   140</hex8>
			<hex8 id="9" mat="1">     9,    10,    21,    20,   130,   131,   142,   141</hex8>
			<hex8 id="10" mat="1">    10,    11,    22,    21,   131,   132,   143,   142</hex8>
			<hex8 id="11" mat="1">    12,    13,    24,    23,   133,   134,   145,   144</hex8>
			<hex8 id="12" mat="1">    13,    14,    25,    24,   134,   135,   146,   145</hex8>
			<hex8 id="13" mat="1">    14,    15,    26,    25,   135,   136,   147,   146</hex8>
			<hex8 id="14" mat="1">    15,    16,    27,    26,   136,   137,   148,   147</hex8>
			<hex8 id="15" mat="1">    16,    17,    28,    27,   137,   138,   149,   148</hex8>
			<hex8 id="16" mat="1">    17,    18,    29,    28,   138,   139,   150,   149</hex8>
			<hex8 id="17" mat="1">    18,    19,    30,    29,   139,   140,   151,   150</hex8>
			<hex8 id="18" mat="1">    19,    20,    31,    30,   140,   141,   152,   151</hex8>
			<hex8 id="19" mat="1">    20,    21,    32,    31,   141,   142,   153,   152</hex8>
			<hex8 id="20" mat="1">    21,    22,    33,    32,   142,   143,   154,   153</hex8>
<!-- ... 280 like lines cut -->
		</Elements>
	</Geometry>
	<Boundary>
		<fix>
			<node id="1" bc="xz"></node>
			<node id="2" bc="z"></node>
			<node id="3" bc="z"></node>
			<node id="4" bc="z"></node>
			<node id="5" bc="z"></node>
			<node id="6" bc="z"></node>
			<node id="7" bc="z"></node>
			<node id="8" bc="z"></node>
			<node id="9" bc="z"></node>
			<node id="10" bc="z"></node>
			<node id="11" bc="z"></node>
			<node id="12" bc="xz"></node>
			<node id="13" bc="z"></node>
			<node id="14" bc="z"></node>
			<node id="15" bc="z"></node>
			<node id="16" bc="z"></node>
			<node id="17" bc="z"></node>
			<node id="18" bc="z"></node>
			<node id="19" bc="z"></node>
			<node id="20" bc="z"></node>
			<node id="21" bc="z"></node>
			<node id="22" bc="z"></node>
			<node id="23" bc="xz"></node>
			<node id="24" bc="z"></node>
			<node id="25" bc="z"></node>
			<node id="26" bc="z"></node>
			<node id="27" bc="z"></node>
			<node id="28" bc="z"></node>
			<node id="29" bc="z"></node>
			<node id="30" bc="z"></node>
			<node id="31" bc="z"></node>
			<node id="32" bc="z"></node>
			<node id="33" bc="z"></node>
			<node id="34" bc="xz"></node>
			<node id="35" bc="z"></node>
			<node id="36" bc="z"></node>
			<node id="37" bc="z"></node>
			<node id="38" bc="z"></node>
			<node id="39" bc="z"></node>
			<node id="40" bc="z"></node>
			<node id="41" bc="z"></node>
			<node id="42" bc="z"></node>
			<node id="43" bc="z"></node>
			<node id="44" bc="z"></node>
			<node id="45" bc="xz"></node>
			<node id="46" bc="z"></node>
			<node id="47" bc="z"></node>
			<node id="48" bc="z"></node>
			<node id="49" bc="z"></node>
			<node id="50" bc="z"></node>
			<node id="51" bc="z"></node>
			<node id="52" bc="z"></node>
			<node id="53" bc="z"></node>
			<node id="54" bc="z"></node>
			<node id="55" bc="z"></node>
			<node id="56" bc="xz"></node>
			<node id="57" bc="z"></node>
			<node id="58" bc="z"></node>
			<node id="59" bc="z"></node>
			<node id="60" bc="z"></node>
			<node id="61" bc="z"></node>
			<node id="62" bc="z"></node>
			<node id="63" bc="z"></node>
			<node id="64" bc="z"></node>
			<node id="65" bc="z"></node>
			<node id="66" bc="z"></node>
			<node id="67" bc="xz"></node>
			<node id="68" bc="z"></node>
			<node id="69" bc="z"></node>
			<node id="70" bc="z"></node>
			<node id="71" bc="z"></node>
			<node id="72" bc="z"></node>
			<node id="73" bc="z"></node>
			<node id="74" bc="z"></node>
			<node id="75" bc="z"></node>
			<node id="76" bc="z"></node>
			<node id="77" bc="z"></node>
			<node id="78" bc="xz"></node>
			<node id="79" bc="z"></node>
			<node id="80" bc="z"></node>
			<node id="81" bc="z"></node>
			<node id="82" bc="z"></node>
			<node id="83" bc="z"></node>
			<node id="84" bc="z"></node>
			<node id="85" bc="z"></node>
			<node id="86" bc="z"></node>
			<node id="87" bc="z"></node>
			<node id="88" bc="z"></node>
			<node id="89" bc="xz"></node>
			<node id="90" bc="z"></node>
			<node id="91" bc="z"></node>
			<node id="92" bc="z"></node>
			<node id="93" bc="z"></node>
			<node id="94" bc="z"></node>
			<node id="95" bc="z"></node>
			<node id="96" bc="z"></node>
			<node id="97" bc="z"></node>
			<node id="98" bc="z"></node>
			<node id="99" bc="z"></node>
			<node id="100" bc="xz"></node>
			<node id="101" bc="z"></node>
			<node id="102" bc="z"></node>
			<node id="103" bc="z"></node>
			<node id="104" bc="z"></node>
			<node id="105" bc="z"></node>
			<node id="106" bc="z"></node>
			<node id="107" bc="z"></node>
			<node id="108" bc="z"></node>
			<node id="109" bc="z"></node>
			<node id="110" bc="z"></node>
			<node id="111" bc="xyz"></node>
			<node id="112" bc="yz"></node>
			<node id="113" bc="yz"></node>
			<node id="114" bc="yz"></node>
			<node id="115" bc="yz"></node>
			<node id="116" bc="yz"></node>
			<node id="117" bc="yz"></node>
			<node id="118" bc="yz"></node>
			<node id="119" bc="yz"></node>
			<node id="120" bc="yz"></node>
			<node id="121" bc="yz"></node>
			<node id="122" bc="xz"></node>
			<node id="123" bc="z"></node>
			<node id="124" bc="z"></node>
			<node id="125" bc="z"></node>
			<node id="126" bc="z"></node>
			<node id="127" bc="z"></node>
			<node id="128" bc="z"></node>
			<node id="129" bc="z"></node>
			<node id="130" bc="z"></node>
			<node id="131" bc="z"></node>
			<node id="132" bc="z"></node>
			<node id="133" bc="xz"></node>
			<node id="134" bc="z"></node>
			<node id="135" bc="z"></node>
			<node id="136" bc="z"></node>
			<node id="137" bc="z"></node>
			<node id="138" bc="z"></node>
			<node id="139" bc="z"></node>
			<node id="140" bc="z"></node>
			<node id="141" bc="z"></node>
			<node id="142" bc="z"></node>
			<node id="143" bc="z"></node>
			<node id="144" bc="xz"></node>
			<node id="145" bc="z"></node>
			<node id="146" bc="z"></node>
			<node id="147" bc="z"></node>
			<node id="148" bc="z"></node>
			<node id="149" bc="z"></node>
			<node id="150" bc="z"></node>
			<node id="151" bc="z"></node>
			<node id="152" bc="z"></node>
			<node id="153" bc="z"></node>
			<node id="154" bc="z"></node>
			<node id="155" bc="xz"></node>
			<node id="156" bc="z"></node>
			<node id="157" bc="z"></node>
			<node id="158" bc="z"></node>
			<node id="159" bc="z"></node>
			<node id="160" bc="z"></node>
			<node id="161" bc="z"></node>
			<node id="162" bc="z"></node>
			<node id="163" bc="z"></node>
			<node id="164" bc="z"></node>
			<node id="165" bc="z"></node>
			<node id="166" bc="xz"></node>
			<node id="167" bc="z"></node>
			<node id="168" bc="z"></node>
			<node id="169" bc="z"></node>
			<node id="170" bc="z"></node>
			<node id="171" bc="z"></node>
			<node id="172" bc="z"></node>
			<node id="173" bc="z"></node>
			<node id="174" bc="z"></node>
			<node id="175" bc="z"></node>
			<node id="176" bc="z"></node>
			<node id="177" bc="xz"></node>
			<node id="178" bc="z"></node>
			<node id="179" bc="z"></node>
			<node id="180" bc="z"></node>
			<node id="181" bc="z"></node>
			<node id="182" bc="z"></node>
			<node id="183" bc="z"></node>
			<node id="184" bc="z"></node>
			<node id="185" bc="z"></node>
			<node id="186" bc="z"></node>
			<node id="187" bc="z"></node>
			<node id="188" bc="xz"></node>
			<node id="189" bc="z"></node>
			<node id="190" bc="z"></node>
			<node id="191" bc="z"></node>
			<node id="192" bc="z"></node>
			<node id="193" bc="z"></node>
			<node id="194" bc="z"></node>
			<node id="195" bc="z"></node>
			<node id="196" bc="z"></node>
			<node id="197" bc="z"></node>
			<node id="198" bc="z"></node>
			<node id="199" bc="xz"></node>
			<node id="200" bc="z"></node>
			<node id="201" bc="z"></node>
			<node id="202" bc="z"></node>
			<node id="203" bc="z"></node>
			<node id="204" bc="z"></node>
			<node id="205" bc="z"></node>
			<node id="206" bc="z"></node>
			<node id="207" bc="z"></node>
			<node id="208" bc="z"></node>
			<node id="209" bc="z"></node>
			<node id="210" bc="xz"></node>
			<node id="211" bc="z"></node>
			<node id="212" bc="z"></node>
			<node id="213" bc="z"></node>
			<node id="214" bc="z"></node>
			<node id="215" bc="z"></node>
			<node id="216" bc="z"></node>
			<node id="217" bc="z"></node>
			<node id="218" bc="z"></node>
			<node id="219" bc="z"></node>
			<node id="220" bc="z"></node>
			<node id="221" bc="xz"></node>
			<node id="222" bc="z"></node>
			<node id="223" bc="z"></node>
			<node id="224" bc="z"></node>
			<node id="225" bc="z"></node>
			<node id="226" bc="z"></node>
			<node id="227" bc="z"></node>
			<node id="228" bc="z"></node>
			<node id="229" bc="z"></node>
			<node id="230" bc="z"></node>
			<node id="231" bc="z"></node>
			<node id="232" bc="xyz"></node>
			<node id="233" bc="yz"></node>
			<node id="234" bc="yz"></node>
			<node id="235" bc="yz"></node>
			<node id="236" bc="yz"></node>
			<node id="237" bc="yz"></node>
			<node id="238" bc="yz"></node>
			<node id="239" bc="yz"></node>
			<node id="240" bc="yz"></node>
			<node id="241" bc="yz"></node>
			<node id="242" bc="yz"></node>
			<node id="243" bc="xz"></node>
			<node id="244" bc="z"></node>
			<node id="245" bc="z"></node>
			<node id="246" bc="z"></node>
			<node id="247" bc="z"></node>
			<node id="248" bc="z"></node>
			<node id="249" bc="z"></node>
			<node id="250" bc="z"></node>
			<node id="251" bc="z"></node>
			<node id="252" bc="z"></node>
			<node id="253" bc="z"></node>
			<node id="254" bc="z"></node>
			<node id="255" bc="z"></node>
			<node id="256" bc="z"></node>
			<node id="257" bc="z"></node>
			<node id="258" bc="z"></node>
			<node id="259" bc="z"></node>
			<node id="260" bc="z"></node>
			<node id="261" bc="z"></node>
			<node id="262" bc="z"></node>
			<node id="263" bc="yz"></node>
			<node id="264" bc="xz"></node>
			<node id="265" bc="z"></node>
			<node id="266" bc="z"></node>
			<node id="267" bc="z"></node>
			<node id="268" bc="z"></node>
			<node id="269" bc="z"></node>
			<node id="270" bc="z"></node>
			<node id="271" bc="z"></node>
			<node id="272" bc="z"></node>
			<node id="273" bc="z"></node>
			<node id="274" bc="z"></node>
			<node id="275" bc="z"></node>
			<node id="276" bc="z"></node>
			<node id="277" bc="z"></node>
			<node id="278" bc="z"></node>
			<node id="279" bc="z"></node>
			<node id="280" bc="z"></node>
			<node id="281" bc="z"></node>
			<node id="282" bc="z"></node>
			<node id="283" bc="z"></node>
			<node id="284" bc="yz"></node>
			<node id="285" bc="xz"></node>
			<node id="286" bc="z"></node>
			<node id="287" bc="z"></node>
			<node id="288" bc="z"></node>
			<node id="289" bc="z"></node>
			<node id="290" bc="z"></node>
			<node id="291" bc="z"></node>
			<node id="292" bc="z"></node>
			<node id="293" bc="z"></node>
			<node id="294" bc="z"></node>
			<node id="295" bc="z"></node>
			<node id="296" bc="z"></node>
			<node id="297" bc="z"></node>
			<node id="298" bc="z"></node>
			<node id="299" bc="z"></node>
			<node id="300" bc="z"></node>
			<node id="301" bc="z"></node>
			<node id="302" bc="z"></node>
			<node id="303" bc="z"></node>
			<node id="304" bc="z"></node>
			<node id="305" bc="yz"></node>
			<node id="306" bc="xz"></node>
			<node id="307" bc="z"></node>
			<node id="308" bc="z"></node>
			<node id="309" bc="z"></node>
			<node id="310" bc="z"></node>
			<node id="311" bc="z"></node>
			<node id="312" bc="z"></node>
			<node id="313" bc="z"></node>
			<node id="314" bc="z"></node>
			<node id="315" bc="z"></node>
			<node id="316" bc="z"></node>
			<node id="317" bc="z"></node>
			<node id="318" bc="z"></node>
			<node id="319" bc="z"></node>
			<node id="320" bc="z"></node>
			<node id="321" bc="z"></node>
			<node id="322" bc="z"></node>
			<node id="323" bc="z"></node>
			<node id="324" bc="z"></node>
			<node id="325" bc="z"></node>
			<node id="326" bc="yz"></node>
			<node id="327" bc="xz"></node>
			<node id="328" bc="z"></node>
			<node id="329" bc="z"></node>
			<node id="330" bc="z"></node>
			<node id="331" bc="z"></node>
			<node id="332" bc="z"></node>
			<node id="333" bc="z"></node>
			<node id="334" bc="z"></node>
			<node id="335" bc="z"></node>
			<node id="336" bc="z"></node>
			<node id="337" bc="z"></node>
			<node id="338" bc="z"></node>
			<node id="339" bc="z"></node>
			<node id="340" bc="z"></node>
			<node id="341" bc="z"></node>
			<node id="342" bc="z"></node>
			<node id="343" bc="z"></node>
			<node id="344" bc="z"></node>
			<node id="345" bc="z"></node>
			<node id="346" bc="z"></node>
			<node id="347" bc="yz"></node>
			<node id="348" bc="xz"></node>
			<node id="349" bc="z"></node>
			<node id="350" bc="z"></node>
			<node id="351" bc="z"></node>
			<node id="352" bc="z"></node>
			<node id="353" bc="z"></node>
			<node id="354" bc="z"></node>
			<node id="355" bc="z"></node>
			<node id="356" bc="z"></node>
			<node id="357" bc="z"></node>
			<node id="358" bc="z"></node>
			<node id="359" bc="z"></node>
			<node id="360" bc="z"></node>
			<node id="361" bc="z"></node>
			<node id="362" bc="z"></node>
			<node id="363" bc="z"></node>
			<node id="364" bc="z"></node>
			<node id="365" bc="z"></node>
			<node id="366" bc="z"></node>
			<node id="367" bc="z"></node>
			<node id="368" bc="yz"></node>
			<node id="369" bc="xz"></node>
			<node id="370" bc="z"></node>
			<node id="371" bc="z"></node>
			<node id="372" bc="z"></node>
			<node id="373" bc="z"></node>
			<node id="374" bc="z"></node>
			<node id="375" bc="z"></node>
			<node id="376" bc="z"></node>
			<node id="377" bc="z"></node>
			<node id="378" bc="z"></node>
			<node id="379" bc="z"></node>
			<node id="380" bc="z"></node>
			<node id="381" bc="z"></node>
			<node id="382" bc="z"></node>
			<node id="383" bc="z"></node>
			<node id="384" bc="z"></node>
			<node id="385" bc="z"></node>
			<node id="386" bc="z"></node>
			<node id="387" bc="z"></node>
			<node id="388" bc="z"></node>
			<node id="389" bc="yz"></node>
			<node id="390" bc="xz"></node>
			<node id="391" bc="z"></node>
			<node id="392" bc="z"></node>
			<node id="393" bc="z"></node>
			<node id="394" bc="z"></node>
			<node id="395" bc="z"></node>
			<node id="396" bc="z"></node>
			<node id="397" bc="z"></node>
			<node id="398" bc="z"></node>
			<node id="399" bc="z"></node>
			<node id="400" bc="z"></node>
			<node id="401" bc="z"></node>
			<node id="402" bc="z"></node>
			<node id="403" bc="z"></node>
			<node id="404" bc="z"></node>
			<node id="405" bc="z"></node>
			<node id="406" bc="z"></node>
			<node id="407" bc="z"></node>
			<node id="408" bc="z"></node>
			<node id="409" bc="z"></node>
			<node id="410" bc="yz"></node>
			<node id="411" bc="xz"></node>
			<node id="412" bc="z"></node>
			<node id="413" bc="z"></node>
			<node id="414" bc="z"></node>
			<node id="415" bc="z"></node>
			<node id="416" bc="z"></node>
			<node id="417" bc="z"></node>
			<node id="418" bc="z"></node>
			<node id="419" bc="z"></node>
			<node id="420" bc="z"></node>
			<node id="421" bc="z"></node>
			<node id="422" bc="z"></node>
			<node id="423" bc="z"></node>
			<node id="424" bc="z"></node>
			<node id="425" bc="z"></node>
			<node id="426" bc="z"></node>
			<node id="427" bc="z"></node>
			<node id="428" bc="z"></node>
			<node id="429" bc="z"></node>
			<node id="430" bc="z"></node>
			<node id="431" bc="yz"></node>
			<node id="432" bc="xz"></node>
			<node id="433" bc="z"></node>
			<node id="434" bc="z"></node>
			<node id="435" bc="z"></node>
			<node id="436" bc="z"></node>
			<node id="437" bc="z"></node>
			<node id="438" bc="z"></node>
			<node id="439" bc="z"></node>
			<node id="440" bc="z"></node>
			<node id="441" bc="z"></node>
			<node id="442" bc="z"></node>
			<node id="443" bc="z"></node>
			<node id="444" bc="z"></node>
			<node id="445" bc="z"></node>
			<node id="446" bc="z"></node>
			<node id="447" bc="z"></node>
			<node id="448" bc="z"></node>
			<node id="449" bc="z"></node>
			<node id="450" bc="z"></node>
			<node id="451" bc="z"></node>
			<node id="452" bc="yz"></node>
			<node id="453" bc="xz"></node>
			<node id="454" bc="z"></node>
			<node id="455" bc="z"></node>
			<node id="456" bc="z"></node>
			<node id="457" bc="z"></node>
			<node id="458" bc="z"></node>
			<node id="459" bc="z"></node>
			<node id="460" bc="z"></node>
			<node id="461" bc="z"></node>
			<node id="462" bc="z"></node>
			<node id="463" bc="z"></node>
			<node id="464" bc="z"></node>
			<node id="465" bc="z"></node>
			<node id="466" bc="z"></node>
			<node id="467" bc="z"></node>
			<node id="468" bc="z"></node>
			<node id="469" bc="z"></node>
			<node id="470" bc="z"></node>
			<node id="471" bc="z"></node>
			<node id="472" bc="z"></node>
			<node id="473" bc="yz"></node>
			<node id="474" bc="xz"></node>
			<node id="475" bc="z"></node>
			<node id="476" bc="z"></node>
			<node id="477" bc="z"></node>
			<node id="478" bc="z"></node>
			<node id="479" bc="z"></node>
			<node id="480" bc="z"></node>
			<node id="481" bc="z"></node>
			<node id="482" bc="z"></node>
			<node id="483" bc="z"></node>
			<node id="484" bc="z"></node>
			<node id="485" bc="z"></node>
			<node id="486" bc="z"></node>
			<node id="487" bc="z"></node>
			<node id="488" bc="z"></node>
			<node id="489" bc="z"></node>
			<node id="490" bc="z"></node>
			<node id="491" bc="z"></node>
			<node id="492" bc="z"></node>
			<node id="493" bc="z"></node>
			<node id="494" bc="yz"></node>
			<node id="495" bc="xz"></node>
			<node id="496" bc="z"></node>
			<node id="497" bc="z"></node>
			<node id="498" bc="z"></node>
			<node id="499" bc="z"></node>
			<node id="500" bc="z"></node>
			<node id="501" bc="z"></node>
			<node id="502" bc="z"></node>
			<node id="503" bc="z"></node>
			<node id="504" bc="z"></node>
			<node id="505" bc="z"></node>
			<node id="506" bc="z"></node>
			<node id="507" bc="z"></node>
			<node id="508" bc="z"></node>
			<node id="509" bc="z"></node>
			<node id="510" bc="z"></node>
			<node id="511" bc="z"></node>
			<node id="512" bc="z"></node>
			<node id="513" bc="z"></node>
			<node id="514" bc="z"></node>
			<node id="515" bc="yz"></node>
			<node id="516" bc="xz"></node>
			<node id="517" bc="z"></node>
			<node id="518" bc="z"></node>
			<node id="519" bc="z"></node>
			<node id="520" bc="z"></node>
			<node id="521" bc="z"></node>
			<node id="522" bc="z"></node>
			<node id="523" bc="z"></node>
			<node id="524" bc="z"></node>
			<node id="525" bc="z"></node>
			<node id="526" bc="z"></node>
			<node id="527" bc="z"></node>
			<node id="528" bc="z"></node>
			<node id="529" bc="z"></node>
			<node id="530" bc="z"></node>
			<node id="531" bc="z"></node>
			<node id="532" bc="z"></node>
			<node id="533" bc="z"></node>
			<node id="534" bc="z"></node>
			<node id="535" bc="z"></node>
			<node id="536" bc="yz"></node>
			<node id="537" bc="xz"></node>
			<node id="538" bc="z"></node>
			<node id="539" bc="z"></node>
			<node id="540" bc="z"></node>
			<node id="541" bc="z"></node>
			<node id="542" bc="z"></node>
			<node id="543" bc="z"></node>
			<node id="544" bc="z"></node>
			<node id="545" bc="z"></node>
			<node id="546" bc="z"></node>
			<node id="547" bc="z"></node>
			<node id="548" bc="z"></node>
			<node id="549" bc="z"></node>
			<node id="550" bc="z"></node>
			<node id="551" bc="z"></node>
			<node id="552" bc="z"></node>
			<node id="553" bc="z"></node>
			<node id="554" bc="z"></node>
			<node id="555" bc="z"></node>
			<node id="556" bc="z"></node>
			<node id="557" bc="yz"></node>
			<node id="558" bc="xz"></node>
			<node id="559" bc="z"></node>
			<node id="560" bc="z"></node>
			<node id="561" bc="z"></node>
			<node id="562" bc="z"></node>
			<node id="563" bc="z"></node>
			<node id="564" bc="z"></node>
			<node id="565" bc="z"></node>
			<node id="566" bc="z"></node>
			<node id="567" bc="z"></node>
			<node id="568" bc="z"></node>
			<node id="569" bc="z"></node>
			<node id="570" bc="z"></node>
			<node id="571" bc="z"></node>
			<node id="572" bc="z"></node>
			<node id="573" bc="z"></node>
			<node id="574" bc="z"></node>
			<node id="575" bc="z"></node>
			<node id="576" bc="z"></node>
			<node id="577" bc="z"></node>
			<node id="578" bc="yz"></node>
			<node id="579" bc="xz"></node>
			<node id="580" bc="z"></node>
			<node id="581" bc="z"></node>
			<node id="582" bc="z"></node>
			<node id="583" bc="z"></node>
			<node id="584" bc="z"></node>
			<node id="585" bc="z"></node>
			<node id="586" bc="z"></node>
			<node id="587" bc="z"></node>
			<node id="588" bc="z"></node>
			<node id="589" bc="z"></node>
			<node id="590" bc="z"></node>
			<node id="591" bc="z"></node>
			<node id="592" bc="z"></node>
			<node id="593" bc="z"></node>
			<node id="594" bc="z"></node>
			<node id="595" bc="z"></node>
			<node id="596" bc="z"></node>
			<node id="597" bc="z"></node>
			<node id="598" bc="z"></node>
			<node id="599" bc="yz"></node>
			<node id="600" bc="xz"></node>
			<node id="601" bc="z"></node>
			<node id="602" bc="z"></node>
			<node id="603" bc="z"></node>
			<node id="604" bc="z"></node>
			<node id="605" bc="z"></node>
			<node id="606" bc="z"></node>
			<node id="607" bc="z"></node>
			<node id="608" bc="z"></node>
			<node id="609" bc="z"></node>
			<node id="610" bc="z"></node>
			<node id="611" bc="z"></node>
			<node id="612" bc="z"></node>
			<node id="613" bc="z"></node>
			<node id="614" bc="z"></node>
			<node id="615" bc="z"></node>
			<node id="616" bc="z"></node>
			<node id="617" bc="z"></node>
			<node id="618" bc="z"></node>
			<node id="619" bc="z"></node>
			<node id="620" bc="yz"></node>
			<node id="621" bc="xz"></node>
			<node id="622" bc="xz"></node>
			<node id="623" bc="xz"></node>
			<node id="624" bc="xz"></node>
			<node id="625" bc="xz"></node>
			<node id="626" bc="xz"></node>
			<node id="627" bc="xz"></node>
			<node id="628" bc="xz"></node>
			<node id="629" bc="xz"></node>
			<node id="630" bc="xz"></node>
			<node id="631" bc="xz"></node>
			<node id="632" bc="z"></node>
			<node id="633" bc="z"></node>
			<node id="634" bc="z"></node>
			<node id="635" bc="z"></node>
			<node id="636" bc="z"></node>
			<node id="637" bc="z"></node>
			<node id="638" bc="z"></node>
			<node id="639" bc="z"></node>
			<node id="640" bc="z"></node>
			<node id="641" bc="yz"></node>
			<node id="642" bc="xz"></node>
			<node id="643" bc="xz"></node>
			<node id="644" bc="xz"></node>
			<node id="645" bc="xz"></node>
			<node id="646" bc="xz"></node>
			<node id="647" bc="xz"></node>
			<node id="648" bc="xz"></node>
			<node id="649" bc="xz"></node>
			<node id="650" bc="xz"></node>
			<node id="651" bc="xz"></node>
			<node id="652" bc="xz"></node>
			<node id="653" bc="z"></node>
			<node id="654" bc="z"></node>
			<node id="655" bc="z"></node>
			<node id="656" bc="z"></node>
			<node id="657" bc="z"></node>
			<node id="658" bc="z"></node>
			<node id="659" bc="z"></node>
			<node id="660" bc="z"></node>
			<node id="661" bc="z"></node>
			<node id="662" bc="yz"></node>
		</fix>
		<prescribe>
			<node id="621" bc="y" lc="1">1</node>
			<node id="622" bc="y" lc="1">1</node>
			<node id="623" bc="y" lc="1">1</node>
			<node id="624" bc="y" lc="1">1</node>
			<node id="625" bc="y" lc="1">1</node>
			<node id="626" bc="y" lc="1">1</node>
			<node id="627" bc="y" lc="1">1</node>
			<node id="628" bc="y" lc="1">1</node>
			<node id="629" bc="y" lc="1">1</node>
			<node id="630" bc="y" lc="1">1</node>
			<node id="631" bc="y" lc="1">1</node>
			<node id="642" bc="y" lc="1">1</node>
			<node id="643" bc="y" lc="1">1</node>
			<node id="644" bc="y" lc="1">1</node>
			<node id="645" bc="y" lc="1">1</node>
			<node id="646" bc="y" lc="1">1</node>
			<node id="647" bc="y" lc="1">1</node>
			<node id="648" bc="y" lc="1">1</node>
			<node id="649" bc="y" lc="1">1</node>
			<node id="650" bc="y" lc="1">1</node>
			<node id="651" bc="y" lc="1">1</node>
			<node id="652" bc="y" lc="1">1</node>
		</prescribe>
	</Boundary>
	<LoadData>
		<loadcurve id="1">
			<loadpoint>0,0</loadpoint>
			<loadpoint>1,0.4</loadpoint>
		</loadcurve>
	</LoadData>
	<Output>
		<plotfile type="febio"></plotfile>
		<logfile>
			<element_data data="Ex">96</element_data>
		</logfile>
	</Output>
</febio_spec>
