<?xml version="1.0" encoding="ISO-8859-1"?>
<!--
Problem Description:
	Test problem for single gauss point hex element.  An element undergoes expansion
	of 1 unit in the x-direction at time t=1.
Main Features:
	Single gauss point hex element
Secondary Features:
	
Materials:
	Neo-Hookean
Degrees of Freedom: 54
Results:
	Steps Completed: 10
	Equilibrium Iterations: 33
	Right Hand Evaluations: 43
	Siffness Reformations: 10
	Other:
		The top surface of the element has a z-displacement of -0.253 at time t=1.
 
Comments:
	
-->
<febio_spec version="1.2">
	<Control>
		<title>untitled</title>
		<time_steps>10</time_steps>
		<step_size>0.1</step_size>
		<max_refs>15</max_refs>
		<max_ups>10</max_ups>
		<dtol>0.001</dtol>
		<etol>0.01</etol>
		<rtol>0</rtol>
		<lstol>0.9</lstol>
		<pressure_stiffness>1</pressure_stiffness>
		<time_stepper>
			<dtmin>0.01</dtmin>
			<dtmax>0.1</dtmax>
			<max_retries>5</max_retries>
			<opt_iter>10</opt_iter>
		</time_stepper>
		<plot_level>PLOT_DEFAULT</plot_level>
		<integration>
			<rule elem="hex8">UDG</rule>
		</integration>
	</Control>
	<Material>
		<material id="1" name="Material 1" type="neo-Hookean">
			<E>1</E>
			<v>0.4</v>
		</material>
	</Material>
	<Geometry>
		<Nodes>
			<node id="1">-5.0000000e-001,-5.0000000e-001, 0.0000000e+000</node>
			<node id="2">-5.0000000e-001,-5.0000000e-001, 5.0000000e-001</node>
			<node id="3">-5.0000000e-001,-5.0000000e-001, 1.0000000e+000</node>
			<node id="4">-5.0000000e-001, 0.0000000e+000, 0.0000000e+000</node>
			<node id="5">-5.0000000e-001, 0.0000000e+000, 5.0000000e-001</node>
			<node id="6">-5.0000000e-001, 0.0000000e+000, 1.0000000e+000</node>
			<node id="7">-5.0000000e-001, 5.0000000e-001, 0.0000000e+000</node>
			<node id="8">-5.0000000e-001, 5.0000000e-001, 5.0000000e-001</node>
			<node id="9">-5.0000000e-001, 5.0000000e-001, 1.0000000e+000</node>
			<node id="10"> 0.0000000e+000,-5.0000000e-001, 0.0000000e+000</node>
			<node id="11"> 0.0000000e+000,-5.0000000e-001, 5.0000000e-001</node>
			<node id="12"> 0.0000000e+000,-5.0000000e-001, 1.0000000e+000</node>
			<node id="13"> 0.0000000e+000, 0.0000000e+000, 0.0000000e+000</node>
			<node id="14"> 0.0000000e+000, 0.0000000e+000, 5.0000000e-001</node>
			<node id="15"> 0.0000000e+000, 0.0000000e+000, 1.0000000e+000</node>
			<node id="16"> 0.0000000e+000, 5.0000000e-001, 0.0000000e+000</node>
			<node id="17"> 0.0000000e+000, 5.0000000e-001, 5.0000000e-001</node>
			<node id="18"> 0.0000000e+000, 5.0000000e-001, 1.0000000e+000</node>
			<node id="19"> 5.0000000e-001,-5.0000000e-001, 0.0000000e+000</node>
			<node id="20"> 5.0000000e-001,-5.0000000e-001, 5.0000000e-001</node>
<!-- ... 7 like lines cut -->
		</Nodes>
		<Elements>
			<hex8 id="1" mat="1">     1,    10,    13,     4,     2,    11,    14,     5</hex8>
			<hex8 id="2" mat="1">     2,    11,    14,     5,     3,    12,    15,     6</hex8>
			<hex8 id="3" mat="1">     4,    13,    16,     7,     5,    14,    17,     8</hex8>
			<hex8 id="4" mat="1">     5,    14,    17,     8,     6,    15,    18,     9</hex8>
			<hex8 id="5" mat="1">    10,    19,    22,    13,    11,    20,    23,    14</hex8>
			<hex8 id="6" mat="1">    11,    20,    23,    14,    12,    21,    24,    15</hex8>
			<hex8 id="7" mat="1">    13,    22,    25,    16,    14,    23,    26,    17</hex8>
			<hex8 id="8" mat="1">    14,    23,    26,    17,    15,    24,    27,    18</hex8>
		</Elements>
	</Geometry>
	<Boundary>
		<fix>
			<node id="1" bc="x"></node>
			<node id="2" bc="x"></node>
			<node id="3" bc="x"></node>
			<node id="4" bc="x"></node>
			<node id="5" bc="x"></node>
			<node id="6" bc="x"></node>
			<node id="7" bc="x"></node>
			<node id="8" bc="x"></node>
			<node id="9" bc="x"></node>
		</fix>
		<fix>
			<node id="1" bc="y"></node>
			<node id="2" bc="y"></node>
			<node id="3" bc="y"></node>
			<node id="10" bc="y"></node>
			<node id="11" bc="y"></node>
			<node id="12" bc="y"></node>
			<node id="19" bc="y"></node>
			<node id="20" bc="y"></node>
			<node id="21" bc="y"></node>
		</fix>
		<fix>
			<node id="1" bc="z"></node>
			<node id="4" bc="z"></node>
			<node id="7" bc="z"></node>
			<node id="10" bc="z"></node>
			<node id="13" bc="z"></node>
			<node id="16" bc="z"></node>
			<node id="19" bc="z"></node>
			<node id="22" bc="z"></node>
			<node id="25" bc="z"></node>
		</fix>
		<prescribe>
			<node id="19" bc="x" lc="1">1</node>
			<node id="20" bc="x" lc="1">1</node>
			<node id="21" bc="x" lc="1">1</node>
			<node id="22" bc="x" lc="1">1</node>
			<node id="23" bc="x" lc="1">1</node>
			<node id="24" bc="x" lc="1">1</node>
			<node id="25" bc="x" lc="1">1</node>
			<node id="26" bc="x" lc="1">1</node>
			<node id="27" bc="x" lc="1">1</node>
		</prescribe>
	</Boundary>
	<LoadData>
		<loadcurve id="1">
			<loadpoint>0,0</loadpoint>
			<loadpoint>1,1</loadpoint>
		</loadcurve>
	</LoadData>
	<Output>
		<plotfile type="febio"></plotfile>
		<logfile>
			<element_data data="sx">2</element_data>
		</logfile>
	</Output>
</febio_spec>
