<?xml version="1.0" encoding="ISO-8859-1"?>
<!--
Problem Description:
	Mooney-Rivlin gradient material problem.  c1 varies from a value of 2 on the left
	hand side of a 10x10x10 block to a value of 10 on the right hand side.  A pressure
	load curve is applied to the right face of the block with a value of 0 at time t=0
	to a value of 2 at time t=1.
Main Features:
	Gradient material
Secondary Features:
	
Materials:
	Mooney-Rivlin
Degrees of Freedom: 3630
Results:
	Steps Completed: 10
	Equilibrium Iterations: 42
	Right Hand Evaluations: 52
	Siffness Reformations: 10
	Other:
		The maximum Von Mises stress is 2.64 at time t=1.
 
Comments:
	
-->
<febio_spec version="1.2">
	<Control>
		<title>Gradient Material</title>
		<time_steps>10</time_steps>
		<step_size>0.1</step_size>
		<max_refs>15</max_refs>
		<max_ups>10</max_ups>
		<dtol>0.001</dtol>
		<etol>0.01</etol>
		<rtol>0</rtol>
		<lstol>0.9</lstol>
		<pressure_stiffness>1</pressure_stiffness>
		<time_stepper>
			<dtmin>0.01</dtmin>
			<dtmax>0.1</dtmax>
			<max_retries>5</max_retries>
			<opt_iter>10</opt_iter>
		</time_stepper>
		<plot_level>PLOT_DEFAULT</plot_level>
	</Control>
	<Material>
		<material id="1" name="Material 1" type="Mooney-Rivlin">
			<c1>2</c1>
			<c2>0</c2>
			<k>1000</k>
		</material>
		<material id="2" name="Material 2" type="Mooney-Rivlin">
			<c1>4</c1>
			<c2>0</c2>
			<k>1000</k>
		</material>
		<material id="3" name="Material 3" type="Mooney-Rivlin">
			<c1>6</c1>
			<c2>0</c2>
			<k>1000</k>
		</material>
		<material id="4" name="Material 4" type="Mooney-Rivlin">
			<c1>8</c1>
			<c2>0</c2>
			<k>1000</k>
		</material>
		<material id="5" name="Material 5" type="Mooney-Rivlin">
			<c1>10</c1>
			<c2>0</c2>
			<k>1000</k>
		</material>
	</Material>
	<Geometry>
		<Nodes>
			<node id="1"> -5.0000000e-01, -5.0000000e-01,  0.0000000e+00</node>
			<node id="2"> -5.0000000e-01, -5.0000000e-01,  1.0000000e-01</node>
			<node id="3"> -5.0000000e-01, -5.0000000e-01,  2.0000000e-01</node>
			<node id="4"> -5.0000000e-01, -5.0000000e-01,  3.0000000e-01</node>
			<node id="5"> -5.0000000e-01, -5.0000000e-01,  4.0000000e-01</node>
			<node id="6"> -5.0000000e-01, -5.0000000e-01,  5.0000000e-01</node>
			<node id="7"> -5.0000000e-01, -5.0000000e-01,  6.0000000e-01</node>
			<node id="8"> -5.0000000e-01, -5.0000000e-01,  7.0000000e-01</node>
			<node id="9"> -5.0000000e-01, -5.0000000e-01,  8.0000000e-01</node>
			<node id="10"> -5.0000000e-01, -5.0000000e-01,  9.0000000e-01</node>
			<node id="11"> -5.0000000e-01, -5.0000000e-01,  1.0000000e+00</node>
			<node id="12"> -5.0000000e-01, -4.0000000e-01,  0.0000000e+00</node>
			<node id="13"> -5.0000000e-01, -4.0000000e-01,  1.0000000e-01</node>
			<node id="14"> -5.0000000e-01, -4.0000000e-01,  2.0000000e-01</node>
			<node id="15"> -5.0000000e-01, -4.0000000e-01,  3.0000000e-01</node>
			<node id="16"> -5.0000000e-01, -4.0000000e-01,  4.0000000e-01</node>
			<node id="17"> -5.0000000e-01, -4.0000000e-01,  5.0000000e-01</node>
			<node id="18"> -5.0000000e-01, -4.0000000e-01,  6.0000000e-01</node>
			<node id="19"> -5.0000000e-01, -4.0000000e-01,  7.0000000e-01</node>
			<node id="20"> -5.0000000e-01, -4.0000000e-01,  8.0000000e-01</node>
<!-- ... 1311 like lines cut -->
		</Nodes>
		<Elements>
			<hex8 id="1" mat="1">     1,   122,   133,    12,     2,   123,   134,    13</hex8>
			<hex8 id="2" mat="1">     2,   123,   134,    13,     3,   124,   135,    14</hex8>
			<hex8 id="3" mat="1">     3,   124,   135,    14,     4,   125,   136,    15</hex8>
			<hex8 id="4" mat="1">     4,   125,   136,    15,     5,   126,   137,    16</hex8>
			<hex8 id="5" mat="1">     5,   126,   137,    16,     6,   127,   138,    17</hex8>
			<hex8 id="6" mat="1">     6,   127,   138,    17,     7,   128,   139,    18</hex8>
			<hex8 id="7" mat="1">     7,   128,   139,    18,     8,   129,   140,    19</hex8>
			<hex8 id="8" mat="1">     8,   129,   140,    19,     9,   130,   141,    20</hex8>
			<hex8 id="9" mat="1">     9,   130,   141,    20,    10,   131,   142,    21</hex8>
			<hex8 id="10" mat="1">    10,   131,   142,    21,    11,   132,   143,    22</hex8>
			<hex8 id="11" mat="1">    12,   133,   144,    23,    13,   134,   145,    24</hex8>
			<hex8 id="12" mat="1">    13,   134,   145,    24,    14,   135,   146,    25</hex8>
			<hex8 id="13" mat="1">    14,   135,   146,    25,    15,   136,   147,    26</hex8>
			<hex8 id="14" mat="1">    15,   136,   147,    26,    16,   137,   148,    27</hex8>
			<hex8 id="15" mat="1">    16,   137,   148,    27,    17,   138,   149,    28</hex8>
			<hex8 id="16" mat="1">    17,   138,   149,    28,    18,   139,   150,    29</hex8>
			<hex8 id="17" mat="1">    18,   139,   150,    29,    19,   140,   151,    30</hex8>
			<hex8 id="18" mat="1">    19,   140,   151,    30,    20,   141,   152,    31</hex8>
			<hex8 id="19" mat="1">    20,   141,   152,    31,    21,   142,   153,    32</hex8>
			<hex8 id="20" mat="1">    21,   142,   153,    32,    22,   143,   154,    33</hex8>
<!-- ... 980 like lines cut -->
		</Elements>
	</Geometry>
	<Boundary>
		<fix>
			<node id="1" bc="x"></node>
			<node id="2" bc="x"></node>
			<node id="3" bc="x"></node>
			<node id="4" bc="x"></node>
			<node id="5" bc="x"></node>
			<node id="6" bc="x"></node>
			<node id="7" bc="x"></node>
			<node id="8" bc="x"></node>
			<node id="9" bc="x"></node>
			<node id="10" bc="x"></node>
			<node id="11" bc="x"></node>
			<node id="12" bc="x"></node>
			<node id="13" bc="x"></node>
			<node id="14" bc="x"></node>
			<node id="15" bc="x"></node>
			<node id="16" bc="x"></node>
			<node id="17" bc="x"></node>
			<node id="18" bc="x"></node>
			<node id="19" bc="x"></node>
			<node id="20" bc="x"></node>
<!-- ... 101 like lines cut -->
		</fix>
		<fix>
			<node id="1" bc="y"></node>
			<node id="2" bc="y"></node>
			<node id="3" bc="y"></node>
			<node id="4" bc="y"></node>
			<node id="5" bc="y"></node>
			<node id="6" bc="y"></node>
			<node id="7" bc="y"></node>
			<node id="8" bc="y"></node>
			<node id="9" bc="y"></node>
			<node id="10" bc="y"></node>
			<node id="11" bc="y"></node>
			<node id="122" bc="y"></node>
			<node id="123" bc="y"></node>
			<node id="124" bc="y"></node>
			<node id="125" bc="y"></node>
			<node id="126" bc="y"></node>
			<node id="127" bc="y"></node>
			<node id="128" bc="y"></node>
			<node id="129" bc="y"></node>
			<node id="130" bc="y"></node>
<!-- ... 101 like lines cut -->
		</fix>
		<fix>
			<node id="1" bc="z"></node>
			<node id="12" bc="z"></node>
			<node id="23" bc="z"></node>
			<node id="34" bc="z"></node>
			<node id="45" bc="z"></node>
			<node id="56" bc="z"></node>
			<node id="67" bc="z"></node>
			<node id="78" bc="z"></node>
			<node id="89" bc="z"></node>
			<node id="100" bc="z"></node>
			<node id="111" bc="z"></node>
			<node id="122" bc="z"></node>
			<node id="133" bc="z"></node>
			<node id="144" bc="z"></node>
			<node id="155" bc="z"></node>
			<node id="166" bc="z"></node>
			<node id="177" bc="z"></node>
			<node id="188" bc="z"></node>
			<node id="199" bc="z"></node>
			<node id="210" bc="z"></node>
<!-- ... 101 like lines cut -->
		</fix>
	</Boundary>
	<Loads>
		<pressure>
			<quad4 id="1" lc="1" scale="1">  1211,  1222,  1223,  1212</quad4>
			<quad4 id="2" lc="1" scale="1">  1212,  1223,  1224,  1213</quad4>
			<quad4 id="3" lc="1" scale="1">  1213,  1224,  1225,  1214</quad4>
			<quad4 id="4" lc="1" scale="1">  1214,  1225,  1226,  1215</quad4>
			<quad4 id="5" lc="1" scale="1">  1215,  1226,  1227,  1216</quad4>
			<quad4 id="6" lc="1" scale="1">  1216,  1227,  1228,  1217</quad4>
			<quad4 id="7" lc="1" scale="1">  1217,  1228,  1229,  1218</quad4>
			<quad4 id="8" lc="1" scale="1">  1218,  1229,  1230,  1219</quad4>
			<quad4 id="9" lc="1" scale="1">  1219,  1230,  1231,  1220</quad4>
			<quad4 id="10" lc="1" scale="1">  1220,  1231,  1232,  1221</quad4>
			<quad4 id="11" lc="1" scale="1">  1222,  1233,  1234,  1223</quad4>
			<quad4 id="12" lc="1" scale="1">  1223,  1234,  1235,  1224</quad4>
			<quad4 id="13" lc="1" scale="1">  1224,  1235,  1236,  1225</quad4>
			<quad4 id="14" lc="1" scale="1">  1225,  1236,  1237,  1226</quad4>
			<quad4 id="15" lc="1" scale="1">  1226,  1237,  1238,  1227</quad4>
			<quad4 id="16" lc="1" scale="1">  1227,  1238,  1239,  1228</quad4>
			<quad4 id="17" lc="1" scale="1">  1228,  1239,  1240,  1229</quad4>
			<quad4 id="18" lc="1" scale="1">  1229,  1240,  1241,  1230</quad4>
			<quad4 id="19" lc="1" scale="1">  1230,  1241,  1242,  1231</quad4>
			<quad4 id="20" lc="1" scale="1">  1231,  1242,  1243,  1232</quad4>
<!-- ... 80 like lines cut -->
		</pressure>
	</Loads>
	<LoadData>
		<loadcurve id="1">
			<loadpoint>0,0</loadpoint>
			<loadpoint>1,2</loadpoint>
		</loadcurve>
	</LoadData>
	<Output>
		<plotfile type="febio"></plotfile>
		<logfile>
			<element_data data="sy">641</element_data>
		</logfile>
	</Output>
</febio_spec>
