<?xml version="1.0" encoding="ISO-8859-1"?>
<!--
Problem Description:
	Gradient mesh problem.  A 10x5x5 block has gradient mesh in the x-direction with a
	ratio of 1.2 (set up in PreView).  The left face of the block has a fixed constraint
	in the x-direction, the front face has a fixed constraint in the y-direction, and
	the bottom face has a fixed constraint in the z-direction.  A dispacement of .5 units
	at time t=1 is prescribed in the x-direction on the right face.
Main Features:
	Gradient mesh
Secondary Features:
	
Materials:
	Mooney-Rivlin
Degrees of Freedom: 1020
Results:
	Steps Completed: 10
	Equilibrium Iterations: 30
	Right Hand Evaluations: 40
	Siffness Reformations: 10
	Other:
		The maximum total dispacement is 0.521 at time t=1.
 
Comments:
	
-->
<febio_spec version="1.2">
	<Control>
		<title>Gradient Mesh</title>
		<time_steps>10</time_steps>
		<step_size>0.1</step_size>
		<max_refs>15</max_refs>
		<max_ups>10</max_ups>
		<dtol>0.001</dtol>
		<etol>0.01</etol>
		<rtol>0</rtol>
		<lstol>0.9</lstol>
		<pressure_stiffness>1</pressure_stiffness>
		<time_stepper>
			<dtmin>0.01</dtmin>
			<dtmax>0.1</dtmax>
			<max_retries>5</max_retries>
			<opt_iter>10</opt_iter>
		</time_stepper>
		<plot_level>PLOT_DEFAULT</plot_level>
	</Control>
	<Material>
		<material id="1" name="Material 1" type="Mooney-Rivlin">
			<c1>1</c1>
			<c2>0</c2>
			<k>100</k>
		</material>
	</Material>
	<Geometry>
		<Nodes>
			<node id="1"> -1.0000000e+00, -5.0000000e-01,  0.0000000e+00</node>
			<node id="2"> -1.0000000e+00, -5.0000000e-01,  2.0000000e-01</node>
			<node id="3"> -1.0000000e+00, -5.0000000e-01,  4.0000000e-01</node>
			<node id="4"> -1.0000000e+00, -5.0000000e-01,  6.0000000e-01</node>
			<node id="5"> -1.0000000e+00, -5.0000000e-01,  8.0000000e-01</node>
			<node id="6"> -1.0000000e+00, -5.0000000e-01,  1.0000000e+00</node>
			<node id="7"> -1.0000000e+00, -3.0000000e-01,  0.0000000e+00</node>
			<node id="8"> -1.0000000e+00, -3.0000000e-01,  2.0000000e-01</node>
			<node id="9"> -1.0000000e+00, -3.0000000e-01,  4.0000000e-01</node>
			<node id="10"> -1.0000000e+00, -3.0000000e-01,  6.0000000e-01</node>
			<node id="11"> -1.0000000e+00, -3.0000000e-01,  8.0000000e-01</node>
			<node id="12"> -1.0000000e+00, -3.0000000e-01,  1.0000000e+00</node>
			<node id="13"> -1.0000000e+00, -1.0000000e-01,  0.0000000e+00</node>
			<node id="14"> -1.0000000e+00, -1.0000000e-01,  2.0000000e-01</node>
			<node id="15"> -1.0000000e+00, -1.0000000e-01,  4.0000000e-01</node>
			<node id="16"> -1.0000000e+00, -1.0000000e-01,  6.0000000e-01</node>
			<node id="17"> -1.0000000e+00, -1.0000000e-01,  8.0000000e-01</node>
			<node id="18"> -1.0000000e+00, -1.0000000e-01,  1.0000000e+00</node>
			<node id="19"> -1.0000000e+00,  1.0000000e-01,  0.0000000e+00</node>
			<node id="20"> -1.0000000e+00,  1.0000000e-01,  2.0000000e-01</node>
<!-- ... 376 like lines cut -->
		</Nodes>
		<Elements>
			<hex8 id="1" mat="1">     1,    37,    43,     7,     2,    38,    44,     8</hex8>
			<hex8 id="2" mat="1">     2,    38,    44,     8,     3,    39,    45,     9</hex8>
			<hex8 id="3" mat="1">     3,    39,    45,     9,     4,    40,    46,    10</hex8>
			<hex8 id="4" mat="1">     4,    40,    46,    10,     5,    41,    47,    11</hex8>
			<hex8 id="5" mat="1">     5,    41,    47,    11,     6,    42,    48,    12</hex8>
			<hex8 id="6" mat="1">     7,    43,    49,    13,     8,    44,    50,    14</hex8>
			<hex8 id="7" mat="1">     8,    44,    50,    14,     9,    45,    51,    15</hex8>
			<hex8 id="8" mat="1">     9,    45,    51,    15,    10,    46,    52,    16</hex8>
			<hex8 id="9" mat="1">    10,    46,    52,    16,    11,    47,    53,    17</hex8>
			<hex8 id="10" mat="1">    11,    47,    53,    17,    12,    48,    54,    18</hex8>
			<hex8 id="11" mat="1">    13,    49,    55,    19,    14,    50,    56,    20</hex8>
			<hex8 id="12" mat="1">    14,    50,    56,    20,    15,    51,    57,    21</hex8>
			<hex8 id="13" mat="1">    15,    51,    57,    21,    16,    52,    58,    22</hex8>
			<hex8 id="14" mat="1">    16,    52,    58,    22,    17,    53,    59,    23</hex8>
			<hex8 id="15" mat="1">    17,    53,    59,    23,    18,    54,    60,    24</hex8>
			<hex8 id="16" mat="1">    19,    55,    61,    25,    20,    56,    62,    26</hex8>
			<hex8 id="17" mat="1">    20,    56,    62,    26,    21,    57,    63,    27</hex8>
			<hex8 id="18" mat="1">    21,    57,    63,    27,    22,    58,    64,    28</hex8>
			<hex8 id="19" mat="1">    22,    58,    64,    28,    23,    59,    65,    29</hex8>
			<hex8 id="20" mat="1">    23,    59,    65,    29,    24,    60,    66,    30</hex8>
<!-- ... 230 like lines cut -->
		</Elements>
	</Geometry>
	<Boundary>
		<fix>
			<node id="1" bc="x"></node>
			<node id="2" bc="x"></node>
			<node id="3" bc="x"></node>
			<node id="4" bc="x"></node>
			<node id="5" bc="x"></node>
			<node id="6" bc="x"></node>
			<node id="7" bc="x"></node>
			<node id="8" bc="x"></node>
			<node id="9" bc="x"></node>
			<node id="10" bc="x"></node>
			<node id="11" bc="x"></node>
			<node id="12" bc="x"></node>
			<node id="13" bc="x"></node>
			<node id="14" bc="x"></node>
			<node id="15" bc="x"></node>
			<node id="16" bc="x"></node>
			<node id="17" bc="x"></node>
			<node id="18" bc="x"></node>
			<node id="19" bc="x"></node>
			<node id="20" bc="x"></node>
<!-- ... 16 like lines cut -->
		</fix>
		<fix>
			<node id="1" bc="y"></node>
			<node id="2" bc="y"></node>
			<node id="3" bc="y"></node>
			<node id="4" bc="y"></node>
			<node id="5" bc="y"></node>
			<node id="6" bc="y"></node>
			<node id="37" bc="y"></node>
			<node id="38" bc="y"></node>
			<node id="39" bc="y"></node>
			<node id="40" bc="y"></node>
			<node id="41" bc="y"></node>
			<node id="42" bc="y"></node>
			<node id="73" bc="y"></node>
			<node id="74" bc="y"></node>
			<node id="75" bc="y"></node>
			<node id="76" bc="y"></node>
			<node id="77" bc="y"></node>
			<node id="78" bc="y"></node>
			<node id="109" bc="y"></node>
			<node id="110" bc="y"></node>
<!-- ... 46 like lines cut -->
		</fix>
		<fix>
			<node id="1" bc="z"></node>
			<node id="7" bc="z"></node>
			<node id="13" bc="z"></node>
			<node id="19" bc="z"></node>
			<node id="25" bc="z"></node>
			<node id="31" bc="z"></node>
			<node id="37" bc="z"></node>
			<node id="43" bc="z"></node>
			<node id="49" bc="z"></node>
			<node id="55" bc="z"></node>
			<node id="61" bc="z"></node>
			<node id="67" bc="z"></node>
			<node id="73" bc="z"></node>
			<node id="79" bc="z"></node>
			<node id="85" bc="z"></node>
			<node id="91" bc="z"></node>
			<node id="97" bc="z"></node>
			<node id="103" bc="z"></node>
			<node id="109" bc="z"></node>
			<node id="115" bc="z"></node>
<!-- ... 46 like lines cut -->
		</fix>
		<prescribe>
			<node id="361" bc="x" lc="1">1</node>
			<node id="362" bc="x" lc="1">1</node>
			<node id="363" bc="x" lc="1">1</node>
			<node id="364" bc="x" lc="1">1</node>
			<node id="365" bc="x" lc="1">1</node>
			<node id="366" bc="x" lc="1">1</node>
			<node id="367" bc="x" lc="1">1</node>
			<node id="368" bc="x" lc="1">1</node>
			<node id="369" bc="x" lc="1">1</node>
			<node id="370" bc="x" lc="1">1</node>
			<node id="371" bc="x" lc="1">1</node>
			<node id="372" bc="x" lc="1">1</node>
			<node id="373" bc="x" lc="1">1</node>
			<node id="374" bc="x" lc="1">1</node>
			<node id="375" bc="x" lc="1">1</node>
			<node id="376" bc="x" lc="1">1</node>
			<node id="377" bc="x" lc="1">1</node>
			<node id="378" bc="x" lc="1">1</node>
			<node id="379" bc="x" lc="1">1</node>
			<node id="380" bc="x" lc="1">1</node>
<!-- ... 16 like lines cut -->
		</prescribe>
	</Boundary>
	<LoadData>
		<loadcurve id="1">
			<loadpoint>0,0</loadpoint>
			<loadpoint>1,0.5</loadpoint>
		</loadcurve>
	</LoadData>
	<Output>
		<plotfile type="febio"></plotfile>
		<logfile>
			<element_data data="sx">2</element_data>
		</logfile>
	</Output>
</febio_spec>
