<?xml version="1.0" encoding="ISO-8859-1"?>
<!--
Problem Description:
	Strip biaxial stretching of an elastic sheet with a circular hole.  An initially
	square sheet with a circular hole has it's right face stretched in the x-direction
	508 units.  The left face is constrained in the x-direction and the upper and
	lower faces are constrained in the y-direction.  Quarter symmetry is used.
Main Features:
	Verification problem for FEBio paper.
Secondary Features:
	
Materials:
	Mooney-Rivlin
Degrees of Freedom: 223
Results:
	Steps Completed: 25
	Equilibrium Iterations: 253
	Right Hand Evaluations: 335
	Siffness Reformations: 44
	Other:
		The maximum Von Mises stress is 27.2 at time t=1.
 
Comments:
	
-->
<febio_spec version="1.2">
	<Module type="solid"/>
	<Control>
		<title>Strip Biaxial Stretch w/Hole</title>
		<time_steps>10</time_steps>
		<step_size>0.1</step_size>
		<max_refs>15</max_refs>
		<max_ups>10</max_ups>
		<dtol>0.001</dtol>
		<etol>0.01</etol>
		<rtol>0</rtol>
		<lstol>0.9</lstol>
		<pressure_stiffness>0</pressure_stiffness>
		<time_stepper>
			<dtmin>0.001</dtmin>
			<dtmax>0.1</dtmax>
			<max_retries>10</max_retries>
			<opt_iter>10</opt_iter>
		</time_stepper>
	</Control>
	<Material>
		<material id="1" name="Material 1" type="Mooney-Rivlin">
			<density>1</density>
			<c1>0.1863</c1>
			<c2>0.00979</c2>
			<k>100</k>
		</material>
	</Material>
	<Geometry>
		<Nodes>
			<node id="1">  3.5894670e-06,  6.3487921e+00, -1.0000000e+00</node>
			<node id="2">  3.5894670e-06,  6.3487921e+00,  1.0000000e+00</node>
			<node id="3">  0.0000000e+00,  2.5387501e+01, -1.0000000e+00</node>
			<node id="4">  0.0000000e+00,  2.5387501e+01,  1.0000000e+00</node>
			<node id="5">  0.0000000e+00,  4.4424999e+01, -1.0000000e+00</node>
			<node id="6">  0.0000000e+00,  4.4424999e+01,  1.0000000e+00</node>
			<node id="7">  0.0000000e+00,  6.3462502e+01, -1.0000000e+00</node>
			<node id="8">  0.0000000e+00,  6.3462502e+01,  1.0000000e+00</node>
			<node id="9">  0.0000000e+00,  8.2500000e+01, -1.0000000e+00</node>
			<node id="10">  0.0000000e+00,  8.2500000e+01,  1.0000000e+00</node>
			<node id="11">  1.2387980e+00,  6.2278280e+00, -1.0000000e+00</node>
			<node id="12">  1.2387980e+00,  6.2278280e+00,  1.0000000e+00</node>
			<node id="13">  6.0854158e+00,  2.5296619e+01, -1.0000000e+00</node>
			<node id="14">  6.0854158e+00,  2.5296619e+01,  1.0000000e+00</node>
			<node id="15">  1.0931940e+01,  4.4364410e+01, -1.0000000e+00</node>
			<node id="16">  1.0931940e+01,  4.4364410e+01,  1.0000000e+00</node>
			<node id="17">  1.5778470e+01,  6.3432209e+01, -1.0000000e+00</node>
			<node id="18">  1.5778470e+01,  6.3432209e+01,  1.0000000e+00</node>
			<node id="19">  2.0625000e+01,  8.2500000e+01, -1.0000000e+00</node>
			<node id="20">  2.0625000e+01,  8.2500000e+01,  1.0000000e+00</node>
<!-- ... 70 like lines cut -->
		</Nodes>
		<Elements>
			<hex8 id="1" mat="1">     1,    11,    13,     3,     2,    12,    14,     4</hex8>
			<hex8 id="2" mat="1">    11,    21,    23,    13,    12,    22,    24,    14</hex8>
			<hex8 id="3" mat="1">    21,    31,    33,    23,    22,    32,    34,    24</hex8>
			<hex8 id="4" mat="1">    31,    41,    43,    33,    32,    42,    44,    34</hex8>
			<hex8 id="5" mat="1">     3,    13,    15,     5,     4,    14,    16,     6</hex8>
			<hex8 id="6" mat="1">    13,    23,    25,    15,    14,    24,    26,    16</hex8>
			<hex8 id="7" mat="1">    23,    33,    35,    25,    24,    34,    36,    26</hex8>
			<hex8 id="8" mat="1">    33,    43,    45,    35,    34,    44,    46,    36</hex8>
			<hex8 id="9" mat="1">     5,    15,    17,     7,     6,    16,    18,     8</hex8>
			<hex8 id="10" mat="1">    15,    25,    27,    17,    16,    26,    28,    18</hex8>
			<hex8 id="11" mat="1">    25,    35,    37,    27,    26,    36,    38,    28</hex8>
			<hex8 id="12" mat="1">    35,    45,    47,    37,    36,    46,    48,    38</hex8>
			<hex8 id="13" mat="1">     7,    17,    19,     9,     8,    18,    20,    10</hex8>
			<hex8 id="14" mat="1">    17,    27,    29,    19,    18,    28,    30,    20</hex8>
			<hex8 id="15" mat="1">    27,    37,    39,    29,    28,    38,    40,    30</hex8>
			<hex8 id="16" mat="1">    37,    47,    49,    39,    38,    48,    50,    40</hex8>
			<hex8 id="17" mat="1">    51,    59,    61,    53,    52,    60,    62,    54</hex8>
			<hex8 id="18" mat="1">    59,    67,    69,    61,    60,    68,    70,    62</hex8>
			<hex8 id="19" mat="1">    67,    75,    77,    69,    68,    76,    78,    70</hex8>
			<hex8 id="20" mat="1">    75,    83,    85,    77,    76,    84,    86,    78</hex8>
<!-- ... 12 like lines cut -->
		</Elements>
	</Geometry>
	<Boundary>
		<fix>
			<node id="1" bc="x"/>
			<node id="2" bc="x"/>
			<node id="3" bc="x"/>
			<node id="4" bc="x"/>
			<node id="5" bc="x"/>
			<node id="6" bc="x"/>
			<node id="7" bc="x"/>
			<node id="8" bc="x"/>
			<node id="9" bc="x"/>
			<node id="10" bc="x"/>
		</fix>
		<fix>
			<node id="1" bc="z"/>
			<node id="3" bc="z"/>
			<node id="5" bc="z"/>
			<node id="7" bc="z"/>
			<node id="9" bc="z"/>
		</fix>
		<fix>
			<node id="9" bc="y"/>
			<node id="10" bc="y"/>
			<node id="19" bc="y"/>
			<node id="20" bc="y"/>
			<node id="29" bc="y"/>
			<node id="30" bc="y"/>
			<node id="39" bc="y"/>
			<node id="40" bc="y"/>
			<node id="49" bc="y"/>
			<node id="50" bc="y"/>
		</fix>
		<fix>
			<node id="51" bc="y"/>
			<node id="52" bc="y"/>
			<node id="59" bc="y"/>
			<node id="60" bc="y"/>
			<node id="67" bc="y"/>
			<node id="68" bc="y"/>
			<node id="75" bc="y"/>
			<node id="76" bc="y"/>
			<node id="83" bc="y"/>
			<node id="84" bc="y"/>
		</fix>
		<fix>
			<node id="1" bc="z"/>
			<node id="11" bc="z"/>
			<node id="21" bc="z"/>
			<node id="31" bc="z"/>
			<node id="41" bc="z"/>
			<node id="51" bc="z"/>
			<node id="53" bc="z"/>
			<node id="55" bc="z"/>
			<node id="57" bc="z"/>
			<node id="59" bc="z"/>
			<node id="67" bc="z"/>
			<node id="75" bc="z"/>
			<node id="83" bc="z"/>
			<node id="1" bc="z"/>
			<node id="11" bc="z"/>
			<node id="21" bc="z"/>
			<node id="31" bc="z"/>
			<node id="41" bc="z"/>
			<node id="51" bc="z"/>
			<node id="53" bc="z"/>
<!-- ... 6 like lines cut -->
		</fix>
		<prescribe>
			<node id="49" bc="x" lc="1">1</node>
			<node id="50" bc="x" lc="1">1</node>
			<node id="83" bc="x" lc="1">1</node>
			<node id="84" bc="x" lc="1">1</node>
			<node id="85" bc="x" lc="1">1</node>
			<node id="86" bc="x" lc="1">1</node>
			<node id="87" bc="x" lc="1">1</node>
			<node id="88" bc="x" lc="1">1</node>
			<node id="89" bc="x" lc="1">1</node>
			<node id="90" bc="x" lc="1">1</node>
		</prescribe>
	</Boundary>
	<LoadData>
		<loadcurve id="1" type="smooth">
			<loadpoint>0,0</loadpoint>
			<loadpoint>1,508</loadpoint>
		</loadcurve>
	</LoadData>
	<Output>
		<plotfile type="febio"/>
		<logfile>
			<element_data data="sx">1</element_data>
		</logfile>
	</Output>
</febio_spec>
