<?xml version="1.0" encoding="ISO-8859-1"?>
<!--
Problem Description:
	Geometrically onlinear.analysis of a cantilever beam.  A 269.35 N load is applied
	in the y-direction to a 10 m beam (100 mm thick x 150 mm high).  Results are
	consistent with the analytical solution.
Main Features:
	Verification problem for FEBio paper.
Secondary Features:
	Nodal force
Materials:
	Isotropic elastic
Degrees of Freedom: 4800
Results:
	Steps Completed: 60
	Equilibrium Iterations: 738
	Right Hand Evaluations: 1032
	Siffness Reformations: 97
	Other:
		The maximum y-displacement is 8.18e3 at time t=1.
 
Comments:
	
-->
<febio_spec version="1.2">
	<Control>
		<title>Nonlinear Cantilever Beam</title>
		<time_steps>100</time_steps>
		<step_size>0.01</step_size>
		<max_refs>15</max_refs>
		<max_ups>10</max_ups>
		<dtol>0.001</dtol>
		<etol>0.01</etol>
		<rtol>0</rtol>
		<lstol>0.9</lstol>
		<pressure_stiffness>0</pressure_stiffness>
		<time_stepper>
			<dtmin>0.01</dtmin>
			<dtmax>0.1</dtmax>
			<max_retries>5</max_retries>
			<opt_iter>10</opt_iter>
		</time_stepper>
		<plot_level>PLOT_DEFAULT</plot_level>
	</Control>
	<Material>
		<material id="1" name="Material 2" type="isotropic elastic">
			<E>100</E>
			<v>0</v>
		</material>
	</Material>
	<Geometry>
		<Nodes>
			<node id="1">-5.0000000e+001,-7.3900002e+001, 0.0000000e+000</node>
			<node id="2">-5.0000000e+001,-7.3900002e+001, 2.5000000e+001</node>
			<node id="3">-5.0000000e+001,-7.3900002e+001, 5.0000000e+001</node>
			<node id="4">-5.0000000e+001,-7.3900002e+001, 7.5000000e+001</node>
			<node id="5">-5.0000000e+001,-7.3900002e+001, 1.0000000e+002</node>
			<node id="6">-5.0000000e+001,-7.3900002e+001, 1.2500000e+002</node>
			<node id="7">-5.0000000e+001,-7.3900002e+001, 1.5000000e+002</node>
			<node id="8">-5.0000000e+001,-7.3900002e+001, 1.7500000e+002</node>
			<node id="9">-5.0000000e+001,-7.3900002e+001, 2.0000000e+002</node>
			<node id="10">-5.0000000e+001,-7.3900002e+001, 2.2500000e+002</node>
			<node id="11">-5.0000000e+001,-7.3900002e+001, 2.5000000e+002</node>
			<node id="12">-5.0000000e+001,-7.3900002e+001, 2.7500000e+002</node>
			<node id="13">-5.0000000e+001,-7.3900002e+001, 3.0000000e+002</node>
			<node id="14">-5.0000000e+001,-7.3900002e+001, 3.2500000e+002</node>
			<node id="15">-5.0000000e+001,-7.3900002e+001, 3.5000000e+002</node>
			<node id="16">-5.0000000e+001,-7.3900002e+001, 3.7500000e+002</node>
			<node id="17">-5.0000000e+001,-7.3900002e+001, 4.0000000e+002</node>
			<node id="18">-5.0000000e+001,-7.3900002e+001, 4.2500000e+002</node>
			<node id="19">-5.0000000e+001,-7.3900002e+001, 4.5000000e+002</node>
			<node id="20">-5.0000000e+001,-7.3900002e+001, 4.7500000e+002</node>
<!-- ... 1584 like lines cut -->
		</Nodes>
		<Elements>
			<hex8 id="1" mat="1">     1,   803,  1204,   402,     2,   804,  1205,   403</hex8>
			<hex8 id="2" mat="1">     2,   804,  1205,   403,     3,   805,  1206,   404</hex8>
			<hex8 id="3" mat="1">     3,   805,  1206,   404,     4,   806,  1207,   405</hex8>
			<hex8 id="4" mat="1">     4,   806,  1207,   405,     5,   807,  1208,   406</hex8>
			<hex8 id="5" mat="1">     5,   807,  1208,   406,     6,   808,  1209,   407</hex8>
			<hex8 id="6" mat="1">     6,   808,  1209,   407,     7,   809,  1210,   408</hex8>
			<hex8 id="7" mat="1">     7,   809,  1210,   408,     8,   810,  1211,   409</hex8>
			<hex8 id="8" mat="1">     8,   810,  1211,   409,     9,   811,  1212,   410</hex8>
			<hex8 id="9" mat="1">     9,   811,  1212,   410,    10,   812,  1213,   411</hex8>
			<hex8 id="10" mat="1">    10,   812,  1213,   411,    11,   813,  1214,   412</hex8>
			<hex8 id="11" mat="1">    11,   813,  1214,   412,    12,   814,  1215,   413</hex8>
			<hex8 id="12" mat="1">    12,   814,  1215,   413,    13,   815,  1216,   414</hex8>
			<hex8 id="13" mat="1">    13,   815,  1216,   414,    14,   816,  1217,   415</hex8>
			<hex8 id="14" mat="1">    14,   816,  1217,   415,    15,   817,  1218,   416</hex8>
			<hex8 id="15" mat="1">    15,   817,  1218,   416,    16,   818,  1219,   417</hex8>
			<hex8 id="16" mat="1">    16,   818,  1219,   417,    17,   819,  1220,   418</hex8>
			<hex8 id="17" mat="1">    17,   819,  1220,   418,    18,   820,  1221,   419</hex8>
			<hex8 id="18" mat="1">    18,   820,  1221,   419,    19,   821,  1222,   420</hex8>
			<hex8 id="19" mat="1">    19,   821,  1222,   420,    20,   822,  1223,   421</hex8>
			<hex8 id="20" mat="1">    20,   822,  1223,   421,    21,   823,  1224,   422</hex8>
<!-- ... 380 like lines cut -->
		</Elements>
	</Geometry>
	<Boundary>
		<fix>
			<node id="1" bc="xyz"></node>
			<node id="402" bc="xyz"></node>
			<node id="803" bc="xyz"></node>
			<node id="1204" bc="xyz"></node>
		</fix>
	</Boundary>
	<Loads>
		<force>
			<node id="401" bc="y" lc="1">1</node>
			<node id="1203" bc="y" lc="1">1</node>
		</force>
	</Loads>
	<LoadData>
		<loadcurve id="1">
			<loadpoint>0,0</loadpoint>
			<loadpoint>1,134.675</loadpoint>
		</loadcurve>
	</LoadData>
	<Output>
		<plotfile type="febio"></plotfile>
		<logfile>
			<element_data data="sy">140</element_data>
		</logfile>
	</Output>
</febio_spec>
