<?xml version="1.0" encoding="ISO-8859-1"?>
<!--
Problem Description:
	Crushing of a pipe.  A quarter-symmetry, plain-strain model of a 114.3 mm radius pipe
	with 8.87 mm thickness.  The rigid body "anvil" is displaced 50 mm in the y-direction.
Main Features:
	Verification problem for FEBio paper
	Contact - sliding_with_gaps
Secondary Features:
	
Materials:
	Isotropic elastic
	Rigid body
Degrees of Freedom: 481
Results:
	Steps Completed: 12
	Equilibrium Iterations: 117
	Right Hand Evaluations: 150
	Siffness Reformations: 18
	Other:
		The maximum effective strain is 0.047 at time t=1.
 
Comments:
	
-->
<febio_spec version="1.2">
	<Control>
		<title>Crushed Pipe</title>
		<time_steps>10</time_steps>
		<step_size>0.1</step_size>
		<max_refs>15</max_refs>
		<max_ups>10</max_ups>
		<dtol>0.001</dtol>
		<etol>0.01</etol>
		<rtol>0</rtol>
		<lstol>0.9</lstol>
		<pressure_stiffness>0</pressure_stiffness>
		<time_stepper>
			<dtmin>0.01</dtmin>
			<dtmax>0.1</dtmax>
			<max_retries>5</max_retries>
			<opt_iter>10</opt_iter>
		</time_stepper>
		<plot_level>PLOT_DEFAULT</plot_level>
	</Control>
	<Material>
		<material id="1" name="Material 1" type="isotropic elastic">
			<E>1.86e+05</E>
			<v>0.3</v>
		</material>
		<material id="2" name="Material 2" type="rigid body">
			<density>1</density>
		</material>
	</Material>
	<Geometry>
		<Nodes>
			<node id="1"> 1.0543000e+002, 0.0000000e+000, 0.0000000e+000</node>
			<node id="2"> 1.0764750e+002, 0.0000000e+000, 0.0000000e+000</node>
			<node id="3"> 1.0986500e+002, 0.0000000e+000, 0.0000000e+000</node>
			<node id="4"> 1.1208250e+002, 0.0000000e+000, 0.0000000e+000</node>
			<node id="5"> 1.1430000e+002, 0.0000000e+000, 0.0000000e+000</node>
			<node id="6"> 1.0520427e+002, 6.8954518e+000, 0.0000000e+000</node>
			<node id="7"> 1.0741702e+002, 7.0404833e+000, 0.0000000e+000</node>
			<node id="8"> 1.0962977e+002, 7.1855148e+000, 0.0000000e+000</node>
			<node id="9"> 1.1184253e+002, 7.3305463e+000, 0.0000000e+000</node>
			<node id="10"> 1.1405528e+002, 7.4755777e+000, 0.0000000e+000</node>
			<node id="11"> 1.0452803e+002, 1.3761376e+001, 0.0000000e+000</node>
			<node id="12"> 1.0672656e+002, 1.4050818e+001, 0.0000000e+000</node>
			<node id="13"> 1.0892509e+002, 1.4340260e+001, 0.0000000e+000</node>
			<node id="14"> 1.1112362e+002, 1.4629702e+001, 0.0000000e+000</node>
			<node id="15"> 1.1332215e+002, 1.4919144e+001, 0.0000000e+000</node>
			<node id="16"> 1.0340419e+002, 2.0568372e+001, 0.0000000e+000</node>
			<node id="17"> 1.0557908e+002, 2.1000985e+001, 0.0000000e+000</node>
			<node id="18"> 1.0775398e+002, 2.1433598e+001, 0.0000000e+000</node>
			<node id="19"> 1.0992887e+002, 2.1866211e+001, 0.0000000e+000</node>
			<node id="20"> 1.1210376e+002, 2.2298824e+001, 0.0000000e+000</node>
<!-- ... 2636 like lines cut -->
		</Nodes>
		<Elements>
			<hex8 id="1" mat="1">     1,     2,     7,     6,   126,   127,   132,   131</hex8>
			<hex8 id="2" mat="1">     2,     3,     8,     7,   127,   128,   133,   132</hex8>
			<hex8 id="3" mat="1">     3,     4,     9,     8,   128,   129,   134,   133</hex8>
			<hex8 id="4" mat="1">     4,     5,    10,     9,   129,   130,   135,   134</hex8>
			<hex8 id="5" mat="1">     6,     7,    12,    11,   131,   132,   137,   136</hex8>
			<hex8 id="6" mat="1">     7,     8,    13,    12,   132,   133,   138,   137</hex8>
			<hex8 id="7" mat="1">     8,     9,    14,    13,   133,   134,   139,   138</hex8>
			<hex8 id="8" mat="1">     9,    10,    15,    14,   134,   135,   140,   139</hex8>
			<hex8 id="9" mat="1">    11,    12,    17,    16,   136,   137,   142,   141</hex8>
			<hex8 id="10" mat="1">    12,    13,    18,    17,   137,   138,   143,   142</hex8>
			<hex8 id="11" mat="1">    13,    14,    19,    18,   138,   139,   144,   143</hex8>
			<hex8 id="12" mat="1">    14,    15,    20,    19,   139,   140,   145,   144</hex8>
			<hex8 id="13" mat="1">    16,    17,    22,    21,   141,   142,   147,   146</hex8>
			<hex8 id="14" mat="1">    17,    18,    23,    22,   142,   143,   148,   147</hex8>
			<hex8 id="15" mat="1">    18,    19,    24,    23,   143,   144,   149,   148</hex8>
			<hex8 id="16" mat="1">    19,    20,    25,    24,   144,   145,   150,   149</hex8>
			<hex8 id="17" mat="1">    21,    22,    27,    26,   146,   147,   152,   151</hex8>
			<hex8 id="18" mat="1">    22,    23,    28,    27,   147,   148,   153,   152</hex8>
			<hex8 id="19" mat="1">    23,    24,    29,    28,   148,   149,   154,   153</hex8>
			<hex8 id="20" mat="1">    24,    25,    30,    29,   149,   150,   155,   154</hex8>
<!-- ... 876 like lines cut -->
		</Elements>
	</Geometry>
	<Boundary>
		<fix>
			<node id="1" bc="z"></node>
			<node id="2" bc="z"></node>
			<node id="3" bc="z"></node>
			<node id="4" bc="z"></node>
			<node id="5" bc="z"></node>
			<node id="6" bc="z"></node>
			<node id="7" bc="z"></node>
			<node id="8" bc="z"></node>
			<node id="9" bc="z"></node>
			<node id="10" bc="z"></node>
			<node id="11" bc="z"></node>
			<node id="12" bc="z"></node>
			<node id="13" bc="z"></node>
			<node id="14" bc="z"></node>
			<node id="15" bc="z"></node>
			<node id="16" bc="z"></node>
			<node id="17" bc="z"></node>
			<node id="18" bc="z"></node>
			<node id="19" bc="z"></node>
			<node id="20" bc="z"></node>
<!-- ... 230 like lines cut -->
		</fix>
		<fix>
			<node id="121" bc="x"></node>
			<node id="122" bc="x"></node>
			<node id="123" bc="x"></node>
			<node id="124" bc="x"></node>
			<node id="125" bc="x"></node>
			<node id="246" bc="x"></node>
			<node id="247" bc="x"></node>
			<node id="248" bc="x"></node>
			<node id="249" bc="x"></node>
			<node id="250" bc="x"></node>
		</fix>
		<fix>
			<node id="1" bc="y"></node>
			<node id="2" bc="y"></node>
			<node id="3" bc="y"></node>
			<node id="4" bc="y"></node>
			<node id="5" bc="y"></node>
			<node id="126" bc="y"></node>
			<node id="127" bc="y"></node>
			<node id="128" bc="y"></node>
			<node id="129" bc="y"></node>
			<node id="130" bc="y"></node>
		</fix>
		<contact type="sliding_with_gaps">
			<tolerance>0.01</tolerance>
			<penalty>1e+004</penalty>
			<two_pass>0</two_pass>
			<surface type="master">
				<quad4 id="1">   251,   257,   258,   252</quad4>
				<quad4 id="2">   252,   258,   259,   253</quad4>
				<quad4 id="3">   257,   263,   264,   258</quad4>
				<quad4 id="4">   258,   264,   265,   259</quad4>
				<quad4 id="5">   263,   269,   270,   264</quad4>
				<quad4 id="6">   264,   270,   271,   265</quad4>
				<quad4 id="7">   269,   275,   276,   270</quad4>
				<quad4 id="8">   270,   276,   277,   271</quad4>
				<quad4 id="9">   275,   281,   282,   276</quad4>
				<quad4 id="10">   276,   282,   283,   277</quad4>
				<quad4 id="11">   281,   287,   288,   282</quad4>
				<quad4 id="12">   282,   288,   289,   283</quad4>
				<quad4 id="13">   287,   293,   294,   288</quad4>
				<quad4 id="14">   288,   294,   295,   289</quad4>
				<quad4 id="15">   293,   299,   300,   294</quad4>
				<quad4 id="16">   294,   300,   301,   295</quad4>
				<quad4 id="17">   299,   305,   306,   300</quad4>
				<quad4 id="18">   300,   306,   307,   301</quad4>
				<quad4 id="19">   305,   311,   312,   306</quad4>
				<quad4 id="20">   306,   312,   313,   307</quad4>
<!-- ... 780 like lines cut -->
			</surface>
			<surface type="slave">
				<quad4 id="1">     5,    10,   135,   130</quad4>
				<quad4 id="2">    10,    15,   140,   135</quad4>
				<quad4 id="3">    15,    20,   145,   140</quad4>
				<quad4 id="4">    20,    25,   150,   145</quad4>
				<quad4 id="5">    25,    30,   155,   150</quad4>
				<quad4 id="6">    30,    35,   160,   155</quad4>
				<quad4 id="7">    35,    40,   165,   160</quad4>
				<quad4 id="8">    40,    45,   170,   165</quad4>
				<quad4 id="9">    45,    50,   175,   170</quad4>
				<quad4 id="10">    50,    55,   180,   175</quad4>
				<quad4 id="11">    55,    60,   185,   180</quad4>
				<quad4 id="12">    60,    65,   190,   185</quad4>
				<quad4 id="13">    65,    70,   195,   190</quad4>
				<quad4 id="14">    70,    75,   200,   195</quad4>
				<quad4 id="15">    75,    80,   205,   200</quad4>
				<quad4 id="16">    80,    85,   210,   205</quad4>
				<quad4 id="17">    85,    90,   215,   210</quad4>
				<quad4 id="18">    90,    95,   220,   215</quad4>
				<quad4 id="19">    95,   100,   225,   220</quad4>
				<quad4 id="20">   100,   105,   230,   225</quad4>
<!-- ... 4 like lines cut -->
			</surface>
		</contact>
	</Boundary>
	<Constraints>
		<rigid_body mat="2">
			<trans_x type="fixed"></trans_x>
			<trans_y type="prescribed" lc="1">1</trans_y>
			<trans_z type="fixed"></trans_z>
			<rot_x type="fixed"></rot_x>
			<rot_y type="fixed"></rot_y>
			<rot_z type="fixed"></rot_z>
		</rigid_body>
	</Constraints>
	<LoadData>
		<loadcurve id="1">
			<loadpoint>0,0</loadpoint>
			<loadpoint>1,-50</loadpoint>
		</loadcurve>
	</LoadData>
	<Output>
		<plotfile type="febio"></plotfile>
		<logfile>
			<rigid_body_data data="Fy"></rigid_body_data>
		</logfile>
	</Output>
</febio_spec>
