<?xml version="1.0" encoding="ISO-8859-1"?>
<!--
Problem Description:
	This problem demonstrates bone remodeling using the Weinans Huiskes remodeling material.
Main Features:
	Bone remodeling
Secondary Features:
	
Materials:
	Weinans Huiskes remodeling
	Carter-Hayes
Degrees of Freedom: 5128
Results:
	Steps Completed: 100
	Equilibrium Iterations: 526
	Right Hand Evaluations: 1874
	Siffness Reformations: 526
	Other:
		The minimum density is 0.1 at time t = 10.
Comments:
	
-->
<febio_spec version="1.2">
	<Module type="solid"/>
	<Control>
		<time_steps>100</time_steps>
		<step_size>0.1</step_size>
		<max_refs>15</max_refs>
		<max_ups>0</max_ups>
		<dtol>0.001</dtol>
		<etol>0.01</etol>
		<rtol>0</rtol>
		<lstol>0.9</lstol>
		<time_stepper>
			<dtmin>0.01</dtmin>
			<dtmax>0.1</dtmax>
			<max_retries>5</max_retries>
			<opt_iter>10</opt_iter>
		</time_stepper>
		<analysis type="static"/>
	</Control>
	<Globals>
		<Constants>
			<T>0</T>
			<R>0</R>
			<Fc>0</Fc>
		</Constants>
	</Globals>
	<Material>
		<material id="1" name="Weinans Huiskes remodeling" type="remodeling solid">
		  <min_density>0.1</min_density>
		  <max_density>1.74</max_density>
		  <solid type="Carter-Hayes (old)">
			<density>1.74</density>
			<c>3.790E+10</c>
			<gamma>3.0</gamma>
			<v>0.3</v>
		  </solid>
		  <supply type="Huiskes-supply">
		    <B>1e-5</B>
		    <k>4e4</k>
		  </supply>
		</material>
		<material id="2" name="Side Plate" type="neo-Hookean">
			<density>1</density>
			<E>1.7e+11</E>
			<v>0.3</v>
		</material>
	</Material>
	<Geometry>
		<Nodes>
			<node id="1">  0.0000000e+00,  0.0000000e+00,  1.2000000e+00</node>
			<node id="2"> -1.5400000e-01,  9.0370000e+00,  1.2000000e+00</node>
			<node id="3"> -6.6956520e-03,  3.9291300e-01,  1.2000000e+00</node>
			<node id="4"> -1.3391300e-02,  7.8582610e-01,  1.2000000e+00</node>
			<node id="5"> -2.0086960e-02,  1.1787390e+00,  1.2000000e+00</node>
			<node id="6"> -2.6782610e-02,  1.5716520e+00,  1.2000000e+00</node>
			<node id="7"> -3.3478260e-02,  1.9645650e+00,  1.2000000e+00</node>
			<node id="8"> -4.0173910e-02,  2.3574780e+00,  1.2000000e+00</node>
			<node id="9"> -4.6869570e-02,  2.7503910e+00,  1.2000000e+00</node>
			<node id="10"> -5.3565220e-02,  3.1433040e+00,  1.2000000e+00</node>
			<node id="11"> -6.0260870e-02,  3.5362170e+00,  1.2000000e+00</node>
			<node id="12"> -6.6956520e-02,  3.9291300e+00,  1.2000000e+00</node>
			<node id="13"> -7.3652170e-02,  4.3220430e+00,  1.2000000e+00</node>
			<node id="14"> -8.0347830e-02,  4.7149570e+00,  1.2000000e+00</node>
			<node id="15"> -8.7043480e-02,  5.1078700e+00,  1.2000000e+00</node>
			<node id="16"> -9.3739130e-02,  5.5007830e+00,  1.2000000e+00</node>
			<node id="17"> -1.0043480e-01,  5.8936960e+00,  1.2000000e+00</node>
			<node id="18"> -1.0713040e-01,  6.2866090e+00,  1.2000000e+00</node>
			<node id="19"> -1.1382610e-01,  6.6795220e+00,  1.2000000e+00</node>
			<node id="20"> -1.2052170e-01,  7.0724350e+00,  1.2000000e+00</node>
<!-- ... 1893 like lines cut -->
		</Nodes>
		<Elements>
			<hex8 id="1" mat="1">   585,   724,   731,   725,    25,    54,   147,    26</hex8>
			<hex8 id="2" mat="1">   724,   723,   732,   731,    54,    53,   148,   147</hex8>
			<hex8 id="3" mat="1">   723,   722,   733,   732,    53,    52,   149,   148</hex8>
			<hex8 id="4" mat="1">   722,   721,   734,   733,    52,    51,   150,   149</hex8>
			<hex8 id="5" mat="1">   721,   720,   735,   734,    51,    50,   151,   150</hex8>
			<hex8 id="6" mat="1">   720,   719,   736,   735,    50,    49,   152,   151</hex8>
			<hex8 id="7" mat="1">   719,   718,   737,   736,    49,    48,   153,   152</hex8>
			<hex8 id="8" mat="1">   718,   717,   738,   737,    48,    47,   154,   153</hex8>
			<hex8 id="9" mat="1">   717,   716,   739,   738,    47,    46,   155,   154</hex8>
			<hex8 id="10" mat="1">   716,   715,   740,   739,    46,    45,   156,   155</hex8>
			<hex8 id="11" mat="1">   715,   714,   741,   740,    45,    44,   157,   156</hex8>
			<hex8 id="12" mat="1">   714,   713,   742,   741,    44,    43,   158,   157</hex8>
			<hex8 id="13" mat="1">   713,   712,   743,   742,    43,    42,   159,   158</hex8>
			<hex8 id="14" mat="1">   712,   711,   744,   743,    42,    41,   160,   159</hex8>
			<hex8 id="15" mat="1">   711,   710,   745,   744,    41,    40,   161,   160</hex8>
			<hex8 id="16" mat="1">   710,   709,   746,   745,    40,    39,   162,   161</hex8>
			<hex8 id="17" mat="1">   709,   708,   747,   746,    39,    38,   163,   162</hex8>
			<hex8 id="18" mat="1">   708,   707,   748,   747,    38,    37,   164,   163</hex8>
			<hex8 id="19" mat="1">   707,   706,   749,   748,    37,    36,   165,   164</hex8>
			<hex8 id="20" mat="1">   706,   705,   750,   749,    36,    35,   166,   165</hex8>
<!-- ... 858 like lines cut -->
		</Elements>
	</Geometry>
	<Boundary>
		<fix>
			<node id="1" bc="y"/>
			<node id="25" bc="y"/>
			<node id="26" bc="y"/>
			<node id="27" bc="y"/>
			<node id="28" bc="y"/>
			<node id="29" bc="y"/>
			<node id="30" bc="y"/>
			<node id="31" bc="y"/>
			<node id="585" bc="y"/>
			<node id="587" bc="y"/>
			<node id="725" bc="y"/>
			<node id="726" bc="y"/>
			<node id="727" bc="y"/>
			<node id="728" bc="y"/>
			<node id="729" bc="y"/>
			<node id="730" bc="y"/>
			<node id="1520" bc="y"/>
			<node id="1543" bc="y"/>
			<node id="1544" bc="y"/>
			<node id="1545" bc="y"/>
<!-- ... 28 like lines cut -->
		</fix>
		<fix>
			<node id="1" bc="z"/>
			<node id="2" bc="z"/>
			<node id="3" bc="z"/>
			<node id="4" bc="z"/>
			<node id="5" bc="z"/>
			<node id="6" bc="z"/>
			<node id="7" bc="z"/>
			<node id="8" bc="z"/>
			<node id="9" bc="z"/>
			<node id="10" bc="z"/>
			<node id="11" bc="z"/>
			<node id="12" bc="z"/>
			<node id="13" bc="z"/>
			<node id="14" bc="z"/>
			<node id="15" bc="z"/>
			<node id="16" bc="z"/>
			<node id="17" bc="z"/>
			<node id="18" bc="z"/>
			<node id="19" bc="z"/>
			<node id="20" bc="z"/>
<!-- ... 564 like lines cut -->
		</fix>
		<fix>
			<node id="1" bc="x"/>
			<node id="587" bc="x"/>
			<node id="1520" bc="x"/>
			<node id="1" bc="x"/>
			<node id="587" bc="x"/>
			<node id="1520" bc="x"/>
		</fix>
	</Boundary>
	<Loads>
		<force>
			<node id="105" bc="x" lc="1">4.712e+07</node>
			<node id="649" bc="x" lc="1">4.712e+07</node>
		</force>
		<force>
			<node id="105" bc="y" lc="2">-1.058e+08</node>
			<node id="649" bc="y" lc="2">-1.058e+08</node>
		</force>
		<force>
			<node id="101" bc="x" lc="3">-1.499e+07</node>
			<node id="653" bc="x" lc="3">-1.499e+07</node>
		</force>
		<force>
			<node id="101" bc="y" lc="4">-5.593e+07</node>
			<node id="653" bc="y" lc="4">-5.593e+07</node>
		</force>
		<force>
			<node id="109" bc="x" lc="5">6.417e+07</node>
			<node id="645" bc="x" lc="5">6.417e+07</node>
		</force>
		<force>
			<node id="109" bc="y" lc="6">-4.328e+07</node>
			<node id="645" bc="y" lc="6">-4.328e+07</node>
		</force>
		<force>
			<node id="89" bc="x" lc="7">-2.747E+07</node>
			<node id="670" bc="x" lc="7">-2.747E+07</node>
		</force>
		<force>
			<node id="89" bc="y" lc="8">6.756E+07</node>
			<node id="670" bc="y" lc="8">6.756E+07</node>
		</force>
	</Loads>
	<LoadData>
		<loadcurve id="1" type="smooth">
			<loadpoint>0,0</loadpoint>
			<loadpoint>1,1</loadpoint>
		</loadcurve>
		<loadcurve id="2" type="smooth">
			<loadpoint>0,0</loadpoint>
			<loadpoint>1,1</loadpoint>
		</loadcurve>
		<loadcurve id="3" type="smooth">
			<loadpoint>0,0</loadpoint>
			<loadpoint>1,1</loadpoint>
		</loadcurve>
		<loadcurve id="4" type="smooth">
			<loadpoint>0,0</loadpoint>
			<loadpoint>1,1</loadpoint>
		</loadcurve>
		<loadcurve id="5" type="smooth">
			<loadpoint>0,0</loadpoint>
			<loadpoint>1,1</loadpoint>
		</loadcurve>
		<loadcurve id="6" type="smooth">
			<loadpoint>0,0</loadpoint>
			<loadpoint>1,1</loadpoint>
		</loadcurve>
		<loadcurve id="7" type="smooth">
			<loadpoint>0,0</loadpoint>
			<loadpoint>1,1</loadpoint>
		</loadcurve>
		<loadcurve id="8" type="smooth">
			<loadpoint>0,0</loadpoint>
			<loadpoint>1,1</loadpoint>
		</loadcurve>
		<loadcurve id="9" type="smooth">
			<loadpoint>0,0</loadpoint>
			<loadpoint>1,1</loadpoint>
		</loadcurve>
		<loadcurve id="10" type="smooth">
			<loadpoint>0,0</loadpoint>
			<loadpoint>1,1</loadpoint>
		</loadcurve>
		<loadcurve id="11" type="smooth">
			<loadpoint>0,0</loadpoint>
			<loadpoint>1,1</loadpoint>
		</loadcurve>
		<loadcurve id="12" type="smooth">
			<loadpoint>0,0</loadpoint>
			<loadpoint>1,1</loadpoint>
		</loadcurve>
	</LoadData>
	<Output>
		<plotfile type="febio">
			<var type="displacement"/>
			<var type="relative volume"/>
			<var type="stress"/>
			<var type="strain energy density"/>
			<var type="specific strain energy"/>
			<var type="density"/>
		</plotfile>
		<logfile>
			<element_data data="Ez">574</element_data>
		</logfile>
	</Output>
</febio_spec>
