<?xml version="1.0" encoding="ISO-8859-1"?>
<!-- 
Problem Description:
Unconfined compression stress-relaxation of multiphasic material with NaCl whose solid matrix
consists of a spherical fiber distribution.  A two-step analysis is performed, where the
first step is a steady-state analysis needed to produce equilibrium free swelling by raising
the fixed charged density from zero to the final desired value.  The second step is a
transient analysis where the compressive displacement prescribed on the top surface
is relative to the free-swelling state. 

Main Features:
	Multiphasic material
Secondary Features:
	Relative prescribed displacements
Materials:
	Multiphasic
	Solid Mixture
	Neo-Hookean
	Spherical Fiber Distribution
	Constant Isotropic Permeability
	Constant Osmotic Coefficient
	Constant Isotropic Diffusivity
	Constant Solubility
Degrees of Freedom: 1907
Results:
	Steps Completed: 52
	Equilibrium Iterations: 150
	Right Hand Evaluations: 202
	Siffness Reformations: 150
	Other:
		The peak compressive load is -4.45 at time t=201.
 
Comments:
	
-->
<febio_spec version="1.2">
 	<Globals>
		<Constants>
			<R>8.3144e-6</R>
			<T>293</T>
			<Fc>96500e-9</Fc>
		</Constants>
		<Solutes>
			<solute id="1" name="Na">
				<charge_number>1</charge_number>
			</solute>
			<solute id="2" name="Cl">
				<charge_number>-1</charge_number>
			</solute>
		</Solutes>
	</Globals>
	<Material>
		<material id="1" name="Multiphasic" type="multiphasic">
			<phi0>0.2</phi0>
			<fixed_charge_density lc="5">1</fixed_charge_density>
			<solid type="solid mixture">
			  <solid type="neo-Hookean">
			    <density>1</density>
			    <E>1e-6</E>
			    <v>0</v>
			  </solid>
			  <solid type="ellipsoidal fiber distribution">
			    <ksi>4,4,4</ksi>
			    <beta>2.5,2.5,2.5</beta>
			  </solid>
			</solid>
			<permeability type="perm-const-iso">
				<perm>0.914e-3</perm>
			</permeability>
			<osmotic_coefficient type="osm-coef-const">
				<osmcoef>1</osmcoef>
			</osmotic_coefficient>
			<solute sol="1">
			  <diffusivity type="diff-const-iso">
			    <free_diff>0.6e-3</free_diff>
			    <diff>0.5e-3</diff>
			  </diffusivity>
			  <solubility type="solub-const">
			    <solub>1</solub>
			  </solubility>
			</solute>
			<solute sol="2">
			  <diffusivity type="diff-const-iso">
			    <free_diff>0.9e-3</free_diff>
			    <diff>0.8e-3</diff>
			  </diffusivity>
			  <solubility type="solub-const">
			    <solub>1</solub>
			  </solubility>
			</solute>
		</material>
	</Material>
	<Geometry>
		<Nodes>
			<node id="1">  0.0000000e+00,  0.0000000e+00,  0.0000000e+00</node>
			<node id="2">  5.5039810e-01,  0.0000000e+00,  0.0000000e+00</node>
			<node id="3">  5.3982235e-01,  1.0737734e-01,  0.0000000e+00</node>
			<node id="4">  5.0850154e-01,  2.1062823e-01,  0.0000000e+00</node>
			<node id="5">  4.5763930e-01,  3.0578480e-01,  0.0000000e+00</node>
			<node id="6">  3.8919023e-01,  3.8919022e-01,  0.0000000e+00</node>
			<node id="7">  3.0578481e-01,  4.5763929e-01,  0.0000000e+00</node>
			<node id="8">  2.1062824e-01,  5.0850153e-01,  0.0000000e+00</node>
			<node id="9">  1.0737736e-01,  5.3982235e-01,  0.0000000e+00</node>
			<node id="10">  1.4747860e-08,  5.5039810e-01,  0.0000000e+00</node>
			<node id="11">  1.0017245e+00,  0.0000000e+00,  0.0000000e+00</node>
			<node id="12">  9.8247669e-01,  1.9542676e-01,  0.0000000e+00</node>
			<node id="13">  9.2547280e-01,  3.8334338e-01,  0.0000000e+00</node>
			<node id="14">  8.3290352e-01,  5.5652833e-01,  0.0000000e+00</node>
			<node id="15">  7.0832623e-01,  7.0832621e-01,  0.0000000e+00</node>
			<node id="16">  5.5652835e-01,  8.3290351e-01,  0.0000000e+00</node>
			<node id="17">  3.8334340e-01,  9.2547279e-01,  0.0000000e+00</node>
			<node id="18">  1.9542679e-01,  9.8247668e-01,  0.0000000e+00</node>
			<node id="19">  2.6841105e-08,  1.0017245e+00,  0.0000000e+00</node>
			<node id="20">  1.3718122e+00,  0.0000000e+00,  0.0000000e+00</node>
<!-- ... 342 like lines cut -->
		</Nodes>
		<Elements>
			<penta6 id="1" mat="1">     1,     2,     3,   182,   183,   184</penta6>
			<penta6 id="2" mat="1">     1,     3,     4,   182,   184,   185</penta6>
			<penta6 id="3" mat="1">     1,     4,     5,   182,   185,   186</penta6>
			<penta6 id="4" mat="1">     1,     5,     6,   182,   186,   187</penta6>
			<penta6 id="5" mat="1">     1,     6,     7,   182,   187,   188</penta6>
			<penta6 id="6" mat="1">     1,     7,     8,   182,   188,   189</penta6>
			<penta6 id="7" mat="1">     1,     8,     9,   182,   189,   190</penta6>
			<penta6 id="8" mat="1">     1,     9,    10,   182,   190,   191</penta6>
			<hex8 id="9" mat="1">     2,    11,    12,     3,   183,   192,   193,   184</hex8>
			<hex8 id="10" mat="1">     3,    12,    13,     4,   184,   193,   194,   185</hex8>
			<hex8 id="11" mat="1">     4,    13,    14,     5,   185,   194,   195,   186</hex8>
			<hex8 id="12" mat="1">     5,    14,    15,     6,   186,   195,   196,   187</hex8>
			<hex8 id="13" mat="1">     6,    15,    16,     7,   187,   196,   197,   188</hex8>
			<hex8 id="14" mat="1">     7,    16,    17,     8,   188,   197,   198,   189</hex8>
			<hex8 id="15" mat="1">     8,    17,    18,     9,   189,   198,   199,   190</hex8>
			<hex8 id="16" mat="1">     9,    18,    19,    10,   190,   199,   200,   191</hex8>
			<hex8 id="17" mat="1">    11,    20,    21,    12,   192,   201,   202,   193</hex8>
			<hex8 id="18" mat="1">    12,    21,    22,    13,   193,   202,   203,   194</hex8>
			<hex8 id="19" mat="1">    13,    22,    23,    14,   194,   203,   204,   195</hex8>
			<hex8 id="20" mat="1">    14,    23,    24,    15,   195,   204,   205,   196</hex8>
			<hex8 id="21" mat="1">    15,    24,    25,    16,   196,   205,   206,   197</hex8>
			<hex8 id="22" mat="1">    16,    25,    26,    17,   197,   206,   207,   198</hex8>
			<hex8 id="23" mat="1">    17,    26,    27,    18,   198,   207,   208,   199</hex8>
			<hex8 id="24" mat="1">    18,    27,    28,    19,   199,   208,   209,   200</hex8>
			<hex8 id="25" mat="1">    20,    29,    30,    21,   201,   210,   211,   202</hex8>
			<hex8 id="26" mat="1">    21,    30,    31,    22,   202,   211,   212,   203</hex8>
			<hex8 id="27" mat="1">    22,    31,    32,    23,   203,   212,   213,   204</hex8>
			<hex8 id="28" mat="1">    23,    32,    33,    24,   204,   213,   214,   205</hex8>
<!-- ... 132 like lines cut -->
		</Elements>
	</Geometry>
	<Boundary>
		<fix>
			<node id="1" bc="x"/>
			<node id="10" bc="x"/>
			<node id="19" bc="x"/>
			<node id="28" bc="x"/>
			<node id="37" bc="x"/>
			<node id="46" bc="x"/>
			<node id="55" bc="x"/>
			<node id="64" bc="x"/>
			<node id="73" bc="x"/>
			<node id="82" bc="x"/>
			<node id="91" bc="x"/>
			<node id="100" bc="x"/>
			<node id="109" bc="x"/>
			<node id="118" bc="x"/>
			<node id="127" bc="x"/>
			<node id="136" bc="x"/>
			<node id="145" bc="x"/>
			<node id="154" bc="x"/>
			<node id="163" bc="x"/>
			<node id="172" bc="x"/>
<!-- ... 22 like lines cut -->
		</fix>
		<fix>
			<node id="1" bc="y"/>
			<node id="2" bc="y"/>
			<node id="11" bc="y"/>
			<node id="20" bc="y"/>
			<node id="29" bc="y"/>
			<node id="38" bc="y"/>
			<node id="47" bc="y"/>
			<node id="56" bc="y"/>
			<node id="65" bc="y"/>
			<node id="74" bc="y"/>
			<node id="83" bc="y"/>
			<node id="92" bc="y"/>
			<node id="101" bc="y"/>
			<node id="110" bc="y"/>
			<node id="119" bc="y"/>
			<node id="128" bc="y"/>
			<node id="137" bc="y"/>
			<node id="146" bc="y"/>
			<node id="155" bc="y"/>
			<node id="164" bc="y"/>
<!-- ... 22 like lines cut -->
		</fix>
		<fix>
			<node id="1" bc="z"/>
			<node id="2" bc="z"/>
			<node id="3" bc="z"/>
			<node id="4" bc="z"/>
			<node id="5" bc="z"/>
			<node id="6" bc="z"/>
			<node id="7" bc="z"/>
			<node id="8" bc="z"/>
			<node id="9" bc="z"/>
			<node id="10" bc="z"/>
			<node id="11" bc="z"/>
			<node id="12" bc="z"/>
			<node id="13" bc="z"/>
			<node id="14" bc="z"/>
			<node id="15" bc="z"/>
			<node id="16" bc="z"/>
			<node id="17" bc="z"/>
			<node id="18" bc="z"/>
			<node id="19" bc="z"/>
			<node id="20" bc="z"/>
<!-- ... 161 like lines cut -->
		</fix>
		<prescribe>
			<node id="173" bc="p" lc="2">1</node>
			<node id="174" bc="p" lc="2">1</node>
			<node id="175" bc="p" lc="2">1</node>
			<node id="176" bc="p" lc="2">1</node>
			<node id="177" bc="p" lc="2">1</node>
			<node id="178" bc="p" lc="2">1</node>
			<node id="179" bc="p" lc="2">1</node>
			<node id="180" bc="p" lc="2">1</node>
			<node id="181" bc="p" lc="2">1</node>
			<node id="354" bc="p" lc="2">1</node>
			<node id="355" bc="p" lc="2">1</node>
			<node id="356" bc="p" lc="2">1</node>
			<node id="357" bc="p" lc="2">1</node>
			<node id="358" bc="p" lc="2">1</node>
			<node id="359" bc="p" lc="2">1</node>
			<node id="360" bc="p" lc="2">1</node>
			<node id="361" bc="p" lc="2">1</node>
			<node id="362" bc="p" lc="2">1</node>
		</prescribe>
		<prescribe>
			<node id="173" bc="c1" lc="3">1</node>
			<node id="174" bc="c1" lc="3">1</node>
			<node id="175" bc="c1" lc="3">1</node>
			<node id="176" bc="c1" lc="3">1</node>
			<node id="177" bc="c1" lc="3">1</node>
			<node id="178" bc="c1" lc="3">1</node>
			<node id="179" bc="c1" lc="3">1</node>
			<node id="180" bc="c1" lc="3">1</node>
			<node id="181" bc="c1" lc="3">1</node>
			<node id="354" bc="c1" lc="3">1</node>
			<node id="355" bc="c1" lc="3">1</node>
			<node id="356" bc="c1" lc="3">1</node>
			<node id="357" bc="c1" lc="3">1</node>
			<node id="358" bc="c1" lc="3">1</node>
			<node id="359" bc="c1" lc="3">1</node>
			<node id="360" bc="c1" lc="3">1</node>
			<node id="361" bc="c1" lc="3">1</node>
			<node id="362" bc="c1" lc="3">1</node>
		</prescribe>
		<prescribe>
			<node id="173" bc="c2" lc="3">1</node>
			<node id="174" bc="c2" lc="3">1</node>
			<node id="175" bc="c2" lc="3">1</node>
			<node id="176" bc="c2" lc="3">1</node>
			<node id="177" bc="c2" lc="3">1</node>
			<node id="178" bc="c2" lc="3">1</node>
			<node id="179" bc="c2" lc="3">1</node>
			<node id="180" bc="c2" lc="3">1</node>
			<node id="181" bc="c2" lc="3">1</node>
			<node id="354" bc="c2" lc="3">1</node>
			<node id="355" bc="c2" lc="3">1</node>
			<node id="356" bc="c2" lc="3">1</node>
			<node id="357" bc="c2" lc="3">1</node>
			<node id="358" bc="c2" lc="3">1</node>
			<node id="359" bc="c2" lc="3">1</node>
			<node id="360" bc="c2" lc="3">1</node>
			<node id="361" bc="c2" lc="3">1</node>
			<node id="362" bc="c2" lc="3">1</node>
		</prescribe>
	</Boundary>
	<Initial>
		<concentration sol="1">
			<node id="1">150</node>
			<node id="2">150</node>
			<node id="3">150</node>
			<node id="4">150</node>
			<node id="5">150</node>
			<node id="6">150</node>
			<node id="7">150</node>
			<node id="8">150</node>
			<node id="9">150</node>
			<node id="10">150</node>
			<node id="11">150</node>
			<node id="12">150</node>
			<node id="13">150</node>
			<node id="14">150</node>
			<node id="15">150</node>
			<node id="16">150</node>
			<node id="17">150</node>
			<node id="18">150</node>
			<node id="19">150</node>
			<node id="20">150</node>
<!-- ... 342 like lines cut -->
		</concentration>
		<concentration sol="2">
			<node id="1">150</node>
			<node id="2">150</node>
			<node id="3">150</node>
			<node id="4">150</node>
			<node id="5">150</node>
			<node id="6">150</node>
			<node id="7">150</node>
			<node id="8">150</node>
			<node id="9">150</node>
			<node id="10">150</node>
			<node id="11">150</node>
			<node id="12">150</node>
			<node id="13">150</node>
			<node id="14">150</node>
			<node id="15">150</node>
			<node id="16">150</node>
			<node id="17">150</node>
			<node id="18">150</node>
			<node id="19">150</node>
			<node id="20">150</node>
<!-- ... 342 like lines cut -->
		</concentration>
		<fluid_pressure>
			<node id="1">-0.730836</node>
			<node id="2">-0.730836</node>
			<node id="3">-0.730836</node>
			<node id="4">-0.730836</node>
			<node id="5">-0.730836</node>
			<node id="6">-0.730836</node>
			<node id="7">-0.730836</node>
			<node id="8">-0.730836</node>
			<node id="9">-0.730836</node>
			<node id="10">-0.730836</node>
			<node id="11">-0.730836</node>
			<node id="12">-0.730836</node>
			<node id="13">-0.730836</node>
			<node id="14">-0.730836</node>
			<node id="15">-0.730836</node>
			<node id="16">-0.730836</node>
			<node id="17">-0.730836</node>
			<node id="18">-0.730836</node>
			<node id="19">-0.730836</node>
			<node id="20">-0.730836</node>
<!-- ... 342 like lines cut -->
		</fluid_pressure>
	</Initial>
	<LoadData>
		<loadcurve id="1" type="step">
			<loadpoint>0,0</loadpoint>
			<loadpoint>1,1</loadpoint>
			<loadpoint>201,20</loadpoint>
			<loadpoint>401,20</loadpoint>
			<loadpoint>2000,100</loadpoint>
		</loadcurve>
		<loadcurve id="2" type="step">
			<loadpoint>0,0</loadpoint>
			<loadpoint>1,-0.730836</loadpoint>
		</loadcurve>
		<loadcurve id="3" type="step">
			<loadpoint>0,0</loadpoint>
			<loadpoint>1,150</loadpoint>
		</loadcurve>
		<loadcurve id="4" type="linear">
			<loadpoint>0,0</loadpoint>
			<loadpoint>1,0</loadpoint>
			<loadpoint>201,-0.1</loadpoint>
		</loadcurve>
		<loadcurve id="5" type="linear">
			<loadpoint>0,0</loadpoint>
			<loadpoint>1,-80</loadpoint>
		</loadcurve>
	</LoadData>
	<Output>
		<plotfile type="febio">
			<var type="displacement"/>
			<var type="effective fluid pressure"/>
			<var type="fluid pressure"/>
			<var type="fluid flux"/>
			<var type="relative volume"/>
			<var type="effective solute 1 concentration"/>
			<var type="solute 1 concentration"/>
			<var type="solute 1 flux"/>
			<var type="effective solute 2 concentration"/>
			<var type="solute 2 concentration"/>
			<var type="solute 2 flux"/>
			<var type="electric potential"/>
			<var type="current density"/>
			<var type="fixed charge density"/>
			<var type="stress"/>
		</plotfile>
		<logfile>
			<element_data data="sz">60</element_data>
		</logfile>
	</Output>
	<Step>
		<Module type="multiphasic"/>
		<Control>
			<analysis type="steady-state"/>
			<title>Initial Swelling</title>
			<final_time>1.0</final_time>
			<step_size>0.25</step_size>
			<max_refs>15</max_refs>
			<max_ups>0</max_ups>
			<dtol>0.001</dtol>
			<etol>0.01</etol>
			<rtol>0</rtol>
			<ptol>0.01</ptol>
			<ctol>0.01</ctol>
			<lstol>0.9</lstol>
			<time_stepper>
				<dtmin>0.01</dtmin>
				<dtmax>0.25</dtmax>
				<max_retries>5</max_retries>
				<opt_iter>10</opt_iter>
			</time_stepper>
			<symmetric_biphasic>0</symmetric_biphasic>
		</Control>
	</Step>
	<Step>
		<Module type="multiphasic"/>
		<Control>
			<title>Stress-relaxation</title>
			<final_time>2001</final_time>
			<step_size>0.1</step_size>
			<max_refs>15</max_refs>
			<max_ups>0</max_ups>
			<dtol>0.001</dtol>
			<etol>0.01</etol>
			<rtol>0</rtol>
			<ptol>0.01</ptol>
			<ctol>0.01</ctol>
			<lstol>0.9</lstol>
			<time_stepper>
				<dtmin>0.01</dtmin>
				<dtmax lc="1"></dtmax>
				<max_retries>5</max_retries>
				<opt_iter>10</opt_iter>
			</time_stepper>
			<symmetric_biphasic>0</symmetric_biphasic>
		</Control>
		<Boundary>
			<prescribe type="relative">
				<node id="182" bc="z" lc="4">1</node>
				<node id="183" bc="z" lc="4">1</node>
				<node id="184" bc="z" lc="4">1</node>
				<node id="185" bc="z" lc="4">1</node>
				<node id="186" bc="z" lc="4">1</node>
				<node id="187" bc="z" lc="4">1</node>
				<node id="188" bc="z" lc="4">1</node>
				<node id="189" bc="z" lc="4">1</node>
				<node id="190" bc="z" lc="4">1</node>
				<node id="191" bc="z" lc="4">1</node>
				<node id="192" bc="z" lc="4">1</node>
				<node id="193" bc="z" lc="4">1</node>
				<node id="194" bc="z" lc="4">1</node>
				<node id="195" bc="z" lc="4">1</node>
				<node id="196" bc="z" lc="4">1</node>
				<node id="197" bc="z" lc="4">1</node>
				<node id="198" bc="z" lc="4">1</node>
				<node id="199" bc="z" lc="4">1</node>
				<node id="200" bc="z" lc="4">1</node>
				<node id="201" bc="z" lc="4">1</node>
<!-- ... 161 like lines cut -->
			</prescribe>
		</Boundary>
	</Step>
</febio_spec>
