<?xml version="1.0" encoding="ISO-8859-1"?>
<!-- 
Problem Description:
One-dimensional osmotic loading of an inhomogeneous block consisting of two multiphasic domains containing different solutes.  There are three solute species in this problem: A neutral solute in one of the multiphasic mixtures, and two monovalent counter-ions in the other (charged) multiphasic mixture.  Solutes cannot transport from one material to the other, since there are no shared solute speci

Main Features:
	Combining charged and neutral multiphasic materials in the same model
Secondary Features:
	
Materials:
	Multiphasic
	Neo-Hookean
	Constant Isotropic Permeability
	Constant Osmotic Coefficient
	Constant Isotropic Diffusivity
	Constant Solubility
Degrees of Freedom: 576
Results:
	Steps Completed: 49
	Equilibrium Iterations: 147
	Right Hand Evaluations: 196
	Siffness Reformations: 147
	Other:
		The peak electric potential is -7.37 at time t=1e4.
 
Comments:

-->	
<febio_spec version="1.2">
	<Module type="multiphasic"/>
	<Control>
		<time_steps>10000</time_steps>
		<step_size>1</step_size>
		<max_refs>15</max_refs>
		<max_ups>0</max_ups>
		<dtol>0.001</dtol>
		<etol>0.01</etol>
		<rtol>0</rtol>
		<ptol>0.01</ptol>
		<ctol>0.01</ctol>
		<lstol>0.9</lstol>
		<time_stepper>
			<dtmin>0.01</dtmin>
			<dtmax lc="1"></dtmax>
			<max_retries>5</max_retries>
			<opt_iter>10</opt_iter>
		</time_stepper>
		<symmetric_biphasic>0</symmetric_biphasic>
	</Control>
	<Globals>
		<Constants>
			<T>293</T>
			<R>8.314e-06</R>
			<Fc>9.65e-05</Fc>
		</Constants>
		<Solutes>
			<solute id="1" name="neutral">
				<charge_number>0</charge_number>
			</solute>
			<solute id="2" name="Na+">
				<charge_number>1</charge_number>
			</solute>
			<solute id="3" name="Cl-">
				<charge_number>-1</charge_number>
			</solute>
		</Solutes>
	</Globals>
	<Material>
		<material id="1" name="Triphasic" type="multiphasic">
			<phi0>0.2</phi0>
			<fixed_charge_density>-200</fixed_charge_density>
			<solid type="neo-Hookean">
				<density>1</density>
				<E>1</E>
				<v>0</v>
			</solid>
			<permeability type="perm-const-iso">
				<perm>0.001</perm>
			</permeability>
			<osmotic_coefficient type="osm-coef-const">
				<osmcoef>1</osmcoef>
			</osmotic_coefficient>
			<solute sol="2">
				<diffusivity type="diff-const-iso">
					<free_diff>0.001</free_diff>
					<diff>0.0005</diff>
				</diffusivity>
				<solubility type="solub-const">
					<solub>1</solub>
				</solubility>
			</solute>
			<solute sol="3">
				<diffusivity type="diff-const-iso">
					<free_diff>0.0016</free_diff>
					<diff>0.0008</diff>
				</diffusivity>
				<solubility type="solub-const">
					<solub>1</solub>
				</solubility>
			</solute>
		</material>
		<material id="2" name="Biphasic-Solute" type="multiphasic">
			<phi0>0.2</phi0>
			<solid type="neo-Hookean">
				<density>1</density>
				<E>1</E>
				<v>0</v>
			</solid>
			<permeability type="perm-const-iso">
				<perm>0.001</perm>
			</permeability>
			<osmotic_coefficient type="osm-coef-const">
				<osmcoef>1</osmcoef>
			</osmotic_coefficient>
			<solute sol="1">
				<diffusivity type="diff-const-iso">
					<free_diff>0.001</free_diff>
					<diff>0.0005</diff>
				</diffusivity>
				<solubility type="solub-const">
					<solub>1</solub>
				</solubility>
			</solute>
		</material>
	</Material>
	<Geometry>
		<Nodes>
			<node id="1"> -5.0000000e-01, -5.0000000e-01,  0.0000000e+00</node>
			<node id="2"> -5.0000000e-01, -5.0000000e-01,  1.1731720e-02</node>
			<node id="3"> -5.0000000e-01, -5.0000000e-01,  2.6982956e-02</node>
			<node id="4"> -5.0000000e-01, -5.0000000e-01,  4.6809562e-02</node>
			<node id="5"> -5.0000000e-01, -5.0000000e-01,  7.2584150e-02</node>
			<node id="6"> -5.0000000e-01, -5.0000000e-01,  1.0609112e-01</node>
			<node id="7"> -5.0000000e-01, -5.0000000e-01,  1.4965017e-01</node>
			<node id="8"> -5.0000000e-01, -5.0000000e-01,  2.0627694e-01</node>
			<node id="9"> -5.0000000e-01, -5.0000000e-01,  2.7989174e-01</node>
			<node id="10"> -5.0000000e-01, -5.0000000e-01,  3.7559098e-01</node>
			<node id="11"> -5.0000000e-01, -5.0000000e-01,  5.0000000e-01</node>
			<node id="12"> -5.0000000e-01, -5.0000000e-01,  6.2440902e-01</node>
			<node id="13"> -5.0000000e-01, -5.0000000e-01,  7.2010826e-01</node>
			<node id="14"> -5.0000000e-01, -5.0000000e-01,  7.9372306e-01</node>
			<node id="15"> -5.0000000e-01, -5.0000000e-01,  8.5034983e-01</node>
			<node id="16"> -5.0000000e-01, -5.0000000e-01,  8.9390888e-01</node>
			<node id="17"> -5.0000000e-01, -5.0000000e-01,  9.2741585e-01</node>
			<node id="18"> -5.0000000e-01, -5.0000000e-01,  9.5319044e-01</node>
			<node id="19"> -5.0000000e-01, -5.0000000e-01,  9.7301704e-01</node>
			<node id="20"> -5.0000000e-01, -5.0000000e-01,  9.8826828e-01</node>
<!-- ... 144 like lines cut -->
		</Nodes>
		<Elements>
			<hex8 id="1" mat="1">     1,    43,    64,    22,     2,    44,    65,    23</hex8>
			<hex8 id="2" mat="1">     2,    44,    65,    23,     3,    45,    66,    24</hex8>
			<hex8 id="3" mat="1">     3,    45,    66,    24,     4,    46,    67,    25</hex8>
			<hex8 id="4" mat="1">     4,    46,    67,    25,     5,    47,    68,    26</hex8>
			<hex8 id="5" mat="1">     5,    47,    68,    26,     6,    48,    69,    27</hex8>
			<hex8 id="6" mat="1">     6,    48,    69,    27,     7,    49,    70,    28</hex8>
			<hex8 id="7" mat="1">     7,    49,    70,    28,     8,    50,    71,    29</hex8>
			<hex8 id="8" mat="1">     8,    50,    71,    29,     9,    51,    72,    30</hex8>
			<hex8 id="9" mat="1">     9,    51,    72,    30,    10,    52,    73,    31</hex8>
			<hex8 id="10" mat="1">    10,    52,    73,    31,    11,    53,    74,    32</hex8>
			<hex8 id="11" mat="1">    11,    53,    74,    32,    12,    54,    75,    33</hex8>
			<hex8 id="12" mat="1">    12,    54,    75,    33,    13,    55,    76,    34</hex8>
			<hex8 id="13" mat="1">    13,    55,    76,    34,    14,    56,    77,    35</hex8>
			<hex8 id="14" mat="1">    14,    56,    77,    35,    15,    57,    78,    36</hex8>
			<hex8 id="15" mat="1">    15,    57,    78,    36,    16,    58,    79,    37</hex8>
			<hex8 id="16" mat="1">    16,    58,    79,    37,    17,    59,    80,    38</hex8>
			<hex8 id="17" mat="1">    17,    59,    80,    38,    18,    60,    81,    39</hex8>
			<hex8 id="18" mat="1">    18,    60,    81,    39,    19,    61,    82,    40</hex8>
			<hex8 id="19" mat="1">    19,    61,    82,    40,    20,    62,    83,    41</hex8>
			<hex8 id="20" mat="1">    20,    62,    83,    41,    21,    63,    84,    42</hex8>
<!-- ... 20 like lines cut -->
		</Elements>
	</Geometry>
	<Boundary>
		<fix>
			<node id="1" bc="x"/>
			<node id="2" bc="x"/>
			<node id="3" bc="x"/>
			<node id="4" bc="x"/>
			<node id="5" bc="x"/>
			<node id="6" bc="x"/>
			<node id="7" bc="x"/>
			<node id="8" bc="x"/>
			<node id="9" bc="x"/>
			<node id="10" bc="x"/>
			<node id="11" bc="x"/>
			<node id="12" bc="x"/>
			<node id="13" bc="x"/>
			<node id="14" bc="x"/>
			<node id="15" bc="x"/>
			<node id="16" bc="x"/>
			<node id="17" bc="x"/>
			<node id="18" bc="x"/>
			<node id="19" bc="x"/>
			<node id="20" bc="x"/>
<!-- ... 144 like lines cut -->
		</fix>
		<fix>
			<node id="1" bc="y"/>
			<node id="2" bc="y"/>
			<node id="3" bc="y"/>
			<node id="4" bc="y"/>
			<node id="5" bc="y"/>
			<node id="6" bc="y"/>
			<node id="7" bc="y"/>
			<node id="8" bc="y"/>
			<node id="9" bc="y"/>
			<node id="10" bc="y"/>
			<node id="11" bc="y"/>
			<node id="12" bc="y"/>
			<node id="13" bc="y"/>
			<node id="14" bc="y"/>
			<node id="15" bc="y"/>
			<node id="16" bc="y"/>
			<node id="17" bc="y"/>
			<node id="18" bc="y"/>
			<node id="19" bc="y"/>
			<node id="20" bc="y"/>
<!-- ... 144 like lines cut -->
		</fix>
		<fix>
			<node id="1" bc="z"/>
			<node id="22" bc="z"/>
			<node id="43" bc="z"/>
			<node id="64" bc="z"/>
		</fix>
		<prescribe>
			<node id="104" bc="c1" lc="2">1</node>
			<node id="124" bc="c1" lc="2">1</node>
			<node id="144" bc="c1" lc="2">1</node>
			<node id="164" bc="c1" lc="2">1</node>
		</prescribe>
		<prescribe>
			<node id="104" bc="p" lc="3">1</node>
			<node id="124" bc="p" lc="3">1</node>
			<node id="144" bc="p" lc="3">1</node>
			<node id="164" bc="p" lc="3">1</node>
		</prescribe>
		<prescribe>
			<node id="1" bc="c3" lc="4">1</node>
			<node id="22" bc="c3" lc="4">1</node>
			<node id="43" bc="c3" lc="4">1</node>
			<node id="64" bc="c3" lc="4">1</node>
		</prescribe>
	</Boundary>
	<Initial>
		<concentration sol="1">
			<node id="21">300</node>
			<node id="42">300</node>
			<node id="63">300</node>
			<node id="84">300</node>
			<node id="85">300</node>
			<node id="86">300</node>
			<node id="87">300</node>
			<node id="88">300</node>
			<node id="89">300</node>
			<node id="90">300</node>
			<node id="91">300</node>
			<node id="92">300</node>
			<node id="93">300</node>
			<node id="94">300</node>
			<node id="95">300</node>
			<node id="96">300</node>
			<node id="97">300</node>
			<node id="98">300</node>
			<node id="99">300</node>
			<node id="100">300</node>
<!-- ... 64 like lines cut -->
		</concentration>
		<concentration sol="2">
			<node id="1">150</node>
			<node id="2">150</node>
			<node id="3">150</node>
			<node id="4">150</node>
			<node id="5">150</node>
			<node id="6">150</node>
			<node id="7">150</node>
			<node id="8">150</node>
			<node id="9">150</node>
			<node id="10">150</node>
			<node id="11">150</node>
			<node id="12">150</node>
			<node id="13">150</node>
			<node id="14">150</node>
			<node id="15">150</node>
			<node id="16">150</node>
			<node id="17">150</node>
			<node id="18">150</node>
			<node id="19">150</node>
			<node id="20">150</node>
<!-- ... 64 like lines cut -->
		</concentration>
		<concentration sol="3">
			<node id="1">150</node>
			<node id="2">150</node>
			<node id="3">150</node>
			<node id="4">150</node>
			<node id="5">150</node>
			<node id="6">150</node>
			<node id="7">150</node>
			<node id="8">150</node>
			<node id="9">150</node>
			<node id="10">150</node>
			<node id="11">150</node>
			<node id="12">150</node>
			<node id="13">150</node>
			<node id="14">150</node>
			<node id="15">150</node>
			<node id="16">150</node>
			<node id="17">150</node>
			<node id="18">150</node>
			<node id="19">150</node>
			<node id="20">150</node>
<!-- ... 64 like lines cut -->
		</concentration>
		<fluid_pressure>
			<node id="21">-0.730801</node>
			<node id="42">-0.730801</node>
			<node id="63">-0.730801</node>
			<node id="84">-0.730801</node>
			<node id="85">-0.730801</node>
			<node id="86">-0.730801</node>
			<node id="87">-0.730801</node>
			<node id="88">-0.730801</node>
			<node id="89">-0.730801</node>
			<node id="90">-0.730801</node>
			<node id="91">-0.730801</node>
			<node id="92">-0.730801</node>
			<node id="93">-0.730801</node>
			<node id="94">-0.730801</node>
			<node id="95">-0.730801</node>
			<node id="96">-0.730801</node>
			<node id="97">-0.730801</node>
			<node id="98">-0.730801</node>
			<node id="99">-0.730801</node>
			<node id="100">-0.730801</node>
<!-- ... 64 like lines cut -->
		</fluid_pressure>
		<fluid_pressure>
			<node id="1">-0.730801</node>
			<node id="2">-0.730801</node>
			<node id="3">-0.730801</node>
			<node id="4">-0.730801</node>
			<node id="5">-0.730801</node>
			<node id="6">-0.730801</node>
			<node id="7">-0.730801</node>
			<node id="8">-0.730801</node>
			<node id="9">-0.730801</node>
			<node id="10">-0.730801</node>
			<node id="11">-0.730801</node>
			<node id="12">-0.730801</node>
			<node id="13">-0.730801</node>
			<node id="14">-0.730801</node>
			<node id="15">-0.730801</node>
			<node id="16">-0.730801</node>
			<node id="17">-0.730801</node>
			<node id="18">-0.730801</node>
			<node id="19">-0.730801</node>
			<node id="20">-0.730801</node>
<!-- ... 64 like lines cut -->
		</fluid_pressure>
	</Initial>
	<LoadData>
		<loadcurve id="1" type="step">
			<loadpoint>0,0</loadpoint>
			<loadpoint>1,0.1</loadpoint>
			<loadpoint>10,1</loadpoint>
			<loadpoint>100,10</loadpoint>
			<loadpoint>1000,100</loadpoint>
			<loadpoint>10000,1000</loadpoint>
		</loadcurve>
		<loadcurve id="2" type="linear">
			<loadpoint>0,300</loadpoint>
			<loadpoint>1,600</loadpoint>
		</loadcurve>
		<loadcurve id="3" type="linear">
			<loadpoint>0,-0.7308006</loadpoint>
			<loadpoint>1,-1.4616012</loadpoint>
		</loadcurve>
		<loadcurve id="4" type="step">
			<loadpoint>0,0</loadpoint>
			<loadpoint>1,150</loadpoint>
		</loadcurve>
	</LoadData>
	<Output>
		<plotfile type="febio">
			<var type="current density"/>
			<var type="displacement"/>
			<var type="effective fluid pressure"/>
			<var type="effective solute 1 concentration"/>
			<var type="effective solute 2 concentration"/>
			<var type="effective solute 3 concentration"/>
			<var type="electric potential"/>
			<var type="fixed charge density"/>
			<var type="fluid flux"/>
			<var type="fluid pressure"/>
			<var type="reaction forces"/>
			<var type="relative volume"/>
			<var type="solute 1 concentration"/>
			<var type="solute 2 concentration"/>
			<var type="solute 3 concentration"/>
			<var type="solute 1 flux"/>
			<var type="solute 2 flux"/>
			<var type="solute 3 flux"/>
			<var type="stress"/>
		</plotfile>
		<logfile>
			<element_data data="wz">31</element_data>
		</logfile>
	</Output>
</febio_spec>
