<?xml version="1.0" encoding="ISO-8859-1"?>
<!-- 
Problem Description:
Unconfined compression creep response of charged multiphasic material containing CaCl2. 
The solid matrix consists of a neo-Hookean ground matrix + ellipsoidal fiber distribution.
A two-step analysis is performed: (1) The first step (from 0 to 1 s) is a steady-state analysis
needed to produce equilibrium free swelling by raising the fixed charged density from zero 
to the final desired value. During this step the loading platen is maintained stationary so
that the swelling produces a small tare load. (2) The second step (from 1 to 7201 s) is a 
transient analysis where a constant compressive load (0.471) is prescribed to the loading platen
while the material undergoes creep deformation. 

Main Features:
	Multiphasic material
Secondary Features:
	Multistep analysis
	Axisymmetric analysis (wedge geometry, rigid plane of symmetry, tension-compression contact)
	Contact with rigid platen
Materials:
	Multiphasic
	EFD neo-Hookean
	Holmes-Mow Permeability
	Constant Osmotic Coefficient
	Constant Isotropic Diffusivity
	Constant Solubility
Degrees of Freedom: 608
Results:
	Steps Completed: 63
	Equilibrium Iterations: 197
	Right Hand Evaluations: 281
	Siffness Reformations: 197
	Other:
		The tare load is 0.021 at time t=1.
		The loading platen displacement is -0.934 at t=7201.
 
Comments:
	
-->
<febio_spec version="1.2">
	<Globals>
		<Constants>
			<T>310</T>
			<R>8.314e-06</R>
			<Fc>9.65e-05</Fc>
		</Constants>
		<Solutes>
			<solute id="1" name="Cl-">
				<charge_number>-1</charge_number>
			</solute>
			<solute id="2" name="Ca2+">
				<charge_number>2</charge_number>
			</solute>
		</Solutes>
	</Globals>
	<Material>
		<material id="1" name="Symmetry Plane" type="rigid body">
			<density>1</density>
			<center_of_mass>0,0,0</center_of_mass>
		</material>
		<material id="2" name="Platen" type="rigid body">
			<density>1</density>
			<center_of_mass>0,0,1.5</center_of_mass>
		</material>
		<material id="3" name="Cartilage CaCl2" type="multiphasic">
			<phi0>0.2</phi0>
			<fixed_charge_density lc="2">1</fixed_charge_density>
			<solid type="EFD neo-Hookean">
				<E>0.1</E>
				<v>0</v>
				<beta>2.5,2.5,2.5</beta>
				<ksi>2,2,2</ksi>
			</solid>
			<permeability type="perm-const-iso">
				<perm>0.1</perm>
			</permeability>
			<osmotic_coefficient type="osm-coef-const">
				<osmcoef>1</osmcoef>
			</osmotic_coefficient>
			<solute sol="1">
				<diffusivity type="diff-const-iso">
					<free_diff>0.001</free_diff>
					<diff>0.0005</diff>
				</diffusivity>
				<solubility type="solub-const">
					<solub>1</solub>
				</solubility>
			</solute>
			<solute sol="2">
				<diffusivity type="diff-const-iso">
					<free_diff>0.0016</free_diff>
					<diff>0.0008</diff>
				</diffusivity>
				<solubility type="solub-const">
					<solub>1</solub>
				</solubility>
			</solute>
		</material>
	</Material>
	<Geometry>
		<Nodes>
			<node id="1">  0.0000000e+00,  0.0000000e+00,  0.0000000e+00</node>
			<node id="2">  4.5346025e-01,  0.0000000e+00,  0.0000000e+00</node>
			<node id="3">  4.4958083e-01,  5.9188438e-02,  0.0000000e+00</node>
			<node id="4">  8.3890146e-01,  0.0000000e+00,  0.0000000e+00</node>
			<node id="5">  8.3172454e-01,  1.0949861e-01,  0.0000000e+00</node>
			<node id="6">  1.1665265e+00,  0.0000000e+00,  0.0000000e+00</node>
			<node id="7">  1.1565467e+00,  1.5226226e-01,  0.0000000e+00</node>
			<node id="8">  1.4450078e+00,  0.0000000e+00,  0.0000000e+00</node>
			<node id="9">  1.4326455e+00,  1.8861136e-01,  0.0000000e+00</node>
			<node id="10">  1.6817168e+00,  0.0000000e+00,  0.0000000e+00</node>
			<node id="11">  1.6673295e+00,  2.1950809e-01,  0.0000000e+00</node>
			<node id="12">  1.8829196e+00,  0.0000000e+00,  0.0000000e+00</node>
			<node id="13">  1.8668109e+00,  2.4577032e-01,  0.0000000e+00</node>
			<node id="14">  2.0539419e+00,  0.0000000e+00,  0.0000000e+00</node>
			<node id="15">  2.0363701e+00,  2.6809321e-01,  0.0000000e+00</node>
			<node id="16">  2.1993108e+00,  0.0000000e+00,  0.0000000e+00</node>
			<node id="17">  2.1804954e+00,  2.8706766e-01,  0.0000000e+00</node>
			<node id="18">  2.3228745e+00,  0.0000000e+00,  0.0000000e+00</node>
			<node id="19">  2.3030019e+00,  3.0319595e-01,  0.0000000e+00</node>
			<node id="20">  2.4279035e+00,  0.0000000e+00,  0.0000000e+00</node>
<!-- ... 110 like lines cut -->
		</Nodes>
		<Elements>
			<penta6 id="1" mat="3">     1,     2,     3,    62,    63,    64</penta6>
			<hex8 id="2" mat="3">     2,     4,     5,     3,    63,    65,    66,    64</hex8>
			<hex8 id="3" mat="3">     4,     6,     7,     5,    65,    67,    68,    66</hex8>
			<hex8 id="4" mat="3">     6,     8,     9,     7,    67,    69,    70,    68</hex8>
			<hex8 id="5" mat="3">     8,    10,    11,     9,    69,    71,    72,    70</hex8>
			<hex8 id="6" mat="3">    10,    12,    13,    11,    71,    73,    74,    72</hex8>
			<hex8 id="7" mat="3">    12,    14,    15,    13,    73,    75,    76,    74</hex8>
			<hex8 id="8" mat="3">    14,    16,    17,    15,    75,    77,    78,    76</hex8>
			<hex8 id="9" mat="3">    16,    18,    19,    17,    77,    79,    80,    78</hex8>
			<hex8 id="10" mat="3">    18,    20,    21,    19,    79,    81,    82,    80</hex8>
			<hex8 id="11" mat="3">    20,    22,    23,    21,    81,    83,    84,    82</hex8>
			<hex8 id="12" mat="3">    22,    24,    25,    23,    83,    85,    86,    84</hex8>
			<hex8 id="13" mat="3">    24,    26,    27,    25,    85,    87,    88,    86</hex8>
			<hex8 id="14" mat="3">    26,    28,    29,    27,    87,    89,    90,    88</hex8>
			<hex8 id="15" mat="3">    28,    30,    31,    29,    89,    91,    92,    90</hex8>
			<hex8 id="16" mat="3">    30,    32,    33,    31,    91,    93,    94,    92</hex8>
			<hex8 id="17" mat="3">    32,    34,    35,    33,    93,    95,    96,    94</hex8>
			<hex8 id="18" mat="3">    34,    36,    37,    35,    95,    97,    98,    96</hex8>
			<hex8 id="19" mat="3">    36,    38,    39,    37,    97,    99,   100,    98</hex8>
			<hex8 id="20" mat="3">    38,    40,    41,    39,    99,   101,   102,   100</hex8>
			<hex8 id="21" mat="3">    40,    42,    43,    41,   101,   103,   104,   102</hex8>
<!-- ... 9 like lines cut -->
			<quad4 id="31" mat="1">   123,   125,   126,   124</quad4>
			<quad4 id="32" mat="2">   127,   129,   130,   128</quad4>
		</Elements>
		<ElementData>
			<element id="31">
				<thickness>0.01,0.01,0.01,0.01</thickness>
			</element>
			<element id="32">
				<thickness>0.01,0.01,0.01,0.01</thickness>
			</element>
		</ElementData>
	</Geometry>
	<Boundary>
		<fix>
			<node id="1" bc="xy"/>
			<node id="62" bc="xy"/>
		</fix>
		<fix>
			<node id="1" bc="y"/>
			<node id="2" bc="y"/>
			<node id="4" bc="y"/>
			<node id="6" bc="y"/>
			<node id="8" bc="y"/>
			<node id="10" bc="y"/>
			<node id="12" bc="y"/>
			<node id="14" bc="y"/>
			<node id="16" bc="y"/>
			<node id="18" bc="y"/>
			<node id="20" bc="y"/>
			<node id="22" bc="y"/>
			<node id="24" bc="y"/>
			<node id="26" bc="y"/>
			<node id="28" bc="y"/>
			<node id="30" bc="y"/>
			<node id="32" bc="y"/>
			<node id="34" bc="y"/>
			<node id="36" bc="y"/>
			<node id="38" bc="y"/>
<!-- ... 42 like lines cut -->
		</fix>
		<fix>
			<node id="1" bc="z"/>
			<node id="2" bc="z"/>
			<node id="3" bc="z"/>
			<node id="4" bc="z"/>
			<node id="5" bc="z"/>
			<node id="6" bc="z"/>
			<node id="7" bc="z"/>
			<node id="8" bc="z"/>
			<node id="9" bc="z"/>
			<node id="10" bc="z"/>
			<node id="11" bc="z"/>
			<node id="12" bc="z"/>
			<node id="13" bc="z"/>
			<node id="14" bc="z"/>
			<node id="15" bc="z"/>
			<node id="16" bc="z"/>
			<node id="17" bc="z"/>
			<node id="18" bc="z"/>
			<node id="19" bc="z"/>
			<node id="20" bc="z"/>
<!-- ... 41 like lines cut -->
		</fix>
		<prescribe>
			<node id="60" bc="p" lc="3">1</node>
			<node id="61" bc="p" lc="3">1</node>
			<node id="121" bc="p" lc="3">1</node>
			<node id="122" bc="p" lc="3">1</node>
		</prescribe>
		<prescribe>
			<node id="60" bc="c1" lc="4">1</node>
			<node id="61" bc="c1" lc="4">1</node>
			<node id="121" bc="c1" lc="4">1</node>
			<node id="122" bc="c1" lc="4">1</node>
		</prescribe>
		<prescribe>
			<node id="60" bc="c2" lc="5">1</node>
			<node id="61" bc="c2" lc="5">1</node>
			<node id="121" bc="c2" lc="5">1</node>
			<node id="122" bc="c2" lc="5">1</node>
		</prescribe>
		<contact type="sliding-tension-compression">
			<laugon>0</laugon>
			<tolerance>0.2</tolerance>
			<penalty>10000</penalty>
			<two_pass>0</two_pass>
			<auto_penalty>1</auto_penalty>
			<tension>1</tension>
			<symmetric_stiffness>0</symmetric_stiffness>
			<surface type="master" name="">
				<quad4 id="1">   123,   125,   126,   124</quad4>
			</surface>
			<surface type="slave" name="">
				<quad4 id="1">     1,    62,    64,     3</quad4>
				<quad4 id="2">     5,     3,    64,    66</quad4>
				<quad4 id="3">     7,     5,    66,    68</quad4>
				<quad4 id="4">     9,     7,    68,    70</quad4>
				<quad4 id="5">    11,     9,    70,    72</quad4>
				<quad4 id="6">    13,    11,    72,    74</quad4>
				<quad4 id="7">    15,    13,    74,    76</quad4>
				<quad4 id="8">    17,    15,    76,    78</quad4>
				<quad4 id="9">    19,    17,    78,    80</quad4>
				<quad4 id="10">    21,    19,    80,    82</quad4>
				<quad4 id="11">    23,    21,    82,    84</quad4>
				<quad4 id="12">    25,    23,    84,    86</quad4>
				<quad4 id="13">    27,    25,    86,    88</quad4>
				<quad4 id="14">    29,    27,    88,    90</quad4>
				<quad4 id="15">    31,    29,    90,    92</quad4>
				<quad4 id="16">    33,    31,    92,    94</quad4>
				<quad4 id="17">    35,    33,    94,    96</quad4>
				<quad4 id="18">    37,    35,    96,    98</quad4>
				<quad4 id="19">    39,    37,    98,   100</quad4>
				<quad4 id="20">    41,    39,   100,   102</quad4>
<!-- ... 10 like lines cut -->
			</surface>
		</contact>
		<contact type="sliding-tension-compression">
			<laugon>0</laugon>
			<tolerance>0.2</tolerance>
			<penalty>1000</penalty>
			<two_pass>0</two_pass>
			<auto_penalty>1</auto_penalty>
			<symmetric_stiffness>0</symmetric_stiffness>
			<surface type="master" name="">
				<quad4 id="1">   127,   129,   130,   128</quad4>
			</surface>
			<surface type="slave" name="">
				<tri3 id="1">    62,    63,    64</tri3>
				<quad4 id="2">    63,    65,    66,    64</quad4>
				<quad4 id="3">    65,    67,    68,    66</quad4>
				<quad4 id="4">    67,    69,    70,    68</quad4>
				<quad4 id="5">    69,    71,    72,    70</quad4>
				<quad4 id="6">    71,    73,    74,    72</quad4>
				<quad4 id="7">    73,    75,    76,    74</quad4>
				<quad4 id="8">    75,    77,    78,    76</quad4>
				<quad4 id="9">    77,    79,    80,    78</quad4>
				<quad4 id="10">    79,    81,    82,    80</quad4>
				<quad4 id="11">    81,    83,    84,    82</quad4>
				<quad4 id="12">    83,    85,    86,    84</quad4>
				<quad4 id="13">    85,    87,    88,    86</quad4>
				<quad4 id="14">    87,    89,    90,    88</quad4>
				<quad4 id="15">    89,    91,    92,    90</quad4>
				<quad4 id="16">    91,    93,    94,    92</quad4>
				<quad4 id="17">    93,    95,    96,    94</quad4>
				<quad4 id="18">    95,    97,    98,    96</quad4>
				<quad4 id="19">    97,    99,   100,    98</quad4>
				<quad4 id="20">    99,   101,   102,   100</quad4>
				<quad4 id="21">   101,   103,   104,   102</quad4>
<!-- ... 9 like lines cut -->
			</surface>
		</contact>
	</Boundary>
	<Constraints>
		<rigid_body mat="1">
			<trans_x type="fixed"></trans_x>
			<trans_y type="fixed"></trans_y>
			<trans_z type="fixed"></trans_z>
			<rot_x type="fixed"></rot_x>
			<rot_y type="fixed"></rot_y>
			<rot_z type="fixed"></rot_z>
		</rigid_body>
		<rigid_body mat="2">
			<trans_x type="fixed"></trans_x>
			<trans_y type="fixed"></trans_y>
			<rot_x type="fixed"></rot_x>
			<rot_y type="fixed"></rot_y>
			<rot_z type="fixed"></rot_z>
		</rigid_body>
	</Constraints>
	<Initial>
		<concentration sol="1">
			<node id="1">220</node>
			<node id="2">220</node>
			<node id="3">220</node>
			<node id="4">220</node>
			<node id="5">220</node>
			<node id="6">220</node>
			<node id="7">220</node>
			<node id="8">220</node>
			<node id="9">220</node>
			<node id="10">220</node>
			<node id="11">220</node>
			<node id="12">220</node>
			<node id="13">220</node>
			<node id="14">220</node>
			<node id="15">220</node>
			<node id="16">220</node>
			<node id="17">220</node>
			<node id="18">220</node>
			<node id="19">220</node>
			<node id="20">220</node>
<!-- ... 102 like lines cut -->
		</concentration>
		<concentration sol="2">
			<node id="1">110</node>
			<node id="2">110</node>
			<node id="3">110</node>
			<node id="4">110</node>
			<node id="5">110</node>
			<node id="6">110</node>
			<node id="7">110</node>
			<node id="8">110</node>
			<node id="9">110</node>
			<node id="10">110</node>
			<node id="11">110</node>
			<node id="12">110</node>
			<node id="13">110</node>
			<node id="14">110</node>
			<node id="15">110</node>
			<node id="16">110</node>
			<node id="17">110</node>
			<node id="18">110</node>
			<node id="19">110</node>
			<node id="20">110</node>
<!-- ... 102 like lines cut -->
		</concentration>
		<fluid_pressure>
			<node id="1">-0.8505</node>
			<node id="2">-0.8505</node>
			<node id="3">-0.8505</node>
			<node id="4">-0.8505</node>
			<node id="5">-0.8505</node>
			<node id="6">-0.8505</node>
			<node id="7">-0.8505</node>
			<node id="8">-0.8505</node>
			<node id="9">-0.8505</node>
			<node id="10">-0.8505</node>
			<node id="11">-0.8505</node>
			<node id="12">-0.8505</node>
			<node id="13">-0.8505</node>
			<node id="14">-0.8505</node>
			<node id="15">-0.8505</node>
			<node id="16">-0.8505</node>
			<node id="17">-0.8505</node>
			<node id="18">-0.8505</node>
			<node id="19">-0.8505</node>
			<node id="20">-0.8505</node>
<!-- ... 102 like lines cut -->
		</fluid_pressure>
	</Initial>
	<LoadData>
		<loadcurve id="1" type="step">
			<loadpoint>0,0</loadpoint>
			<loadpoint>1.1,0.1</loadpoint>
			<loadpoint>1.5,0.1</loadpoint>
			<loadpoint>2,0.1</loadpoint>
			<loadpoint>10,1</loadpoint>
			<loadpoint>100,10</loadpoint>
			<loadpoint>1000,100</loadpoint>
			<loadpoint>10000,1000</loadpoint>
		</loadcurve>
		<loadcurve id="2" type="smooth">
			<loadpoint>0,0</loadpoint>
			<loadpoint>1,-200</loadpoint>
		</loadcurve>
		<loadcurve id="3" type="step">
			<loadpoint>0,0</loadpoint>
			<loadpoint>1,-0.8505</loadpoint>
		</loadcurve>
		<loadcurve id="4" type="step">
			<loadpoint>0,0</loadpoint>
			<loadpoint>1,220</loadpoint>
		</loadcurve>
		<loadcurve id="5" type="step">
			<loadpoint>0,0</loadpoint>
			<loadpoint>1,110</loadpoint>
		</loadcurve>
		<loadcurve id="6" type="linear">
			<loadpoint>0,0</loadpoint>
			<loadpoint>1,0</loadpoint>
		</loadcurve>
		<loadcurve id="7" type="step">
			<loadpoint>0,0</loadpoint>
			<loadpoint>1,-0.471</loadpoint>
		</loadcurve>
	</LoadData>
	<Output>
		<plotfile type="febio">
			<var type="contact gap"/>
			<var type="contact pressure"/>
			<var type="current density"/>
			<var type="displacement"/>
			<var type="effective fluid pressure"/>
			<var type="effective solute 1 concentration"/>
			<var type="effective solute 2 concentration"/>
			<var type="electric potential"/>
			<var type="fixed charge density"/>
			<var type="fluid flux"/>
			<var type="fluid pressure"/>
			<var type="reaction forces"/>
			<var type="relative volume"/>
			<var type="solute 1 concentration"/>
			<var type="solute 2 concentration"/>
			<var type="solute 1 flux"/>
			<var type="solute 2 flux"/>
			<var type="stress"/>
		</plotfile>
		<logfile>
			<element_data data="sx">2</element_data>
		</logfile>
	</Output>
	<Step name="Step01 Steady-State">
		<Module type="multiphasic"/>
		<Control>
			<time_steps>10</time_steps>
			<step_size>0.1</step_size>
			<max_refs>15</max_refs>
			<max_ups>0</max_ups>
			<dtol>0.001</dtol>
			<etol>0.01</etol>
			<rtol>0</rtol>
			<ptol>0.01</ptol>
			<ctol>0.01</ctol>
			<lstol>0.9</lstol>
			<time_stepper>
				<dtmin>0.01</dtmin>
				<dtmax>0.1</dtmax>
				<max_retries>5</max_retries>
				<opt_iter>10</opt_iter>
			</time_stepper>
			<analysis type="steady-state"/>
			<symmetric_biphasic>0</symmetric_biphasic>
		</Control>
		<Constraints>
			<rigid_body mat="2">
				<trans_z type="prescribed" lc="6">1</trans_z>
			</rigid_body>
		</Constraints>
	</Step>
	<Step name="Step02 Transient">
		<Module type="multiphasic"/>
		<Control>
			<time_steps>72000</time_steps>
			<step_size>0.1</step_size>
			<max_refs>25</max_refs>
			<max_ups>0</max_ups>
			<dtol>0.001</dtol>
			<etol>0.01</etol>
			<rtol>0</rtol>
			<ptol>0.01</ptol>
			<ctol>0.01</ctol>
			<lstol>0.9</lstol>
			<time_stepper>
				<dtmin>0.01</dtmin>
				<dtmax lc="1"></dtmax>
				<max_retries>5</max_retries>
				<opt_iter>10</opt_iter>
			</time_stepper>
			<symmetric_biphasic>0</symmetric_biphasic>
		</Control>
		<Constraints>
			<rigid_body mat="2">
				<trans_z type="force" lc="7">1</trans_z>
			</rigid_body>
		</Constraints>
	</Step>
</febio_spec>
