<?xml version="1.0" encoding="ISO-8859-1"?>
<!--
Problem Description:
	Multi-step analysis.  A cantilever beam has a prescribed z-displacement of 0 units at
	time t=0 to 1 unit at time t=1 applied to the top nodes of it's free end.  Dynamic
	analysis is then applied to time t=2.5.
Main Features:
	Multi-step analysis
	Dynamic analysis
Secondary Features:
	
Materials:
	Neo-Hookean
Degrees of Freedom: 270
Results:
	Steps Completed: 30
	Equilibrium Iterations: 123
	Right Hand Evaluations: 153
	Siffness Reformations: 30
	Other:
		The beam has a maximum z-displacement of 0.556 units at time t=2.5.
Comments:
	Same as problem ms01.feb except that the nodes on the top of the free end of the beam
	have a prescribed z-displacement instead of an applied force.
-->
<febio_spec version="1.2">
	<Control>
		<title>Multi-step Analysis</title>
	</Control>
	<Material>
		<material id="1" name="Material 3" type="neo-Hookean">
			<E>10000</E>
			<v>0</v>
		</material>
	</Material>
	<Geometry>
		<Nodes>
			<node id="1">-2.0000000e+000,-2.5000000e-001, 1.0000000e+000</node>
			<node id="2">-2.0000000e+000,-2.5000000e-001, 1.2500000e+000</node>
			<node id="3">-2.0000000e+000,-2.5000000e-001, 1.5000000e+000</node>
			<node id="4">-2.0000000e+000, 0.0000000e+000, 1.0000000e+000</node>
			<node id="5">-2.0000000e+000, 0.0000000e+000, 1.2500000e+000</node>
			<node id="6">-2.0000000e+000, 0.0000000e+000, 1.5000000e+000</node>
			<node id="7">-2.0000000e+000, 2.5000000e-001, 1.0000000e+000</node>
			<node id="8">-2.0000000e+000, 2.5000000e-001, 1.2500000e+000</node>
			<node id="9">-2.0000000e+000, 2.5000000e-001, 1.5000000e+000</node>
			<node id="10">-1.6000000e+000,-2.5000000e-001, 1.0000000e+000</node>
			<node id="11">-1.6000000e+000,-2.5000000e-001, 1.2500000e+000</node>
			<node id="12">-1.6000000e+000,-2.5000000e-001, 1.5000000e+000</node>
			<node id="13">-1.6000000e+000, 0.0000000e+000, 1.0000000e+000</node>
			<node id="14">-1.6000000e+000, 0.0000000e+000, 1.2500000e+000</node>
			<node id="15">-1.6000000e+000, 0.0000000e+000, 1.5000000e+000</node>
			<node id="16">-1.6000000e+000, 2.5000000e-001, 1.0000000e+000</node>
			<node id="17">-1.6000000e+000, 2.5000000e-001, 1.2500000e+000</node>
			<node id="18">-1.6000000e+000, 2.5000000e-001, 1.5000000e+000</node>
			<node id="19">-1.2000000e+000,-2.5000000e-001, 1.0000000e+000</node>
			<node id="20">-1.2000000e+000,-2.5000000e-001, 1.2500000e+000</node>
<!-- ... 79 like lines cut -->
		</Nodes>
		<Elements>
			<hex8 id="1" mat="1">     1,    10,    13,     4,     2,    11,    14,     5</hex8>
			<hex8 id="2" mat="1">     2,    11,    14,     5,     3,    12,    15,     6</hex8>
			<hex8 id="3" mat="1">     4,    13,    16,     7,     5,    14,    17,     8</hex8>
			<hex8 id="4" mat="1">     5,    14,    17,     8,     6,    15,    18,     9</hex8>
			<hex8 id="5" mat="1">    10,    19,    22,    13,    11,    20,    23,    14</hex8>
			<hex8 id="6" mat="1">    11,    20,    23,    14,    12,    21,    24,    15</hex8>
			<hex8 id="7" mat="1">    13,    22,    25,    16,    14,    23,    26,    17</hex8>
			<hex8 id="8" mat="1">    14,    23,    26,    17,    15,    24,    27,    18</hex8>
			<hex8 id="9" mat="1">    19,    28,    31,    22,    20,    29,    32,    23</hex8>
			<hex8 id="10" mat="1">    20,    29,    32,    23,    21,    30,    33,    24</hex8>
			<hex8 id="11" mat="1">    22,    31,    34,    25,    23,    32,    35,    26</hex8>
			<hex8 id="12" mat="1">    23,    32,    35,    26,    24,    33,    36,    27</hex8>
			<hex8 id="13" mat="1">    28,    37,    40,    31,    29,    38,    41,    32</hex8>
			<hex8 id="14" mat="1">    29,    38,    41,    32,    30,    39,    42,    33</hex8>
			<hex8 id="15" mat="1">    31,    40,    43,    34,    32,    41,    44,    35</hex8>
			<hex8 id="16" mat="1">    32,    41,    44,    35,    33,    42,    45,    36</hex8>
			<hex8 id="17" mat="1">    37,    46,    49,    40,    38,    47,    50,    41</hex8>
			<hex8 id="18" mat="1">    38,    47,    50,    41,    39,    48,    51,    42</hex8>
			<hex8 id="19" mat="1">    40,    49,    52,    43,    41,    50,    53,    44</hex8>
			<hex8 id="20" mat="1">    41,    50,    53,    44,    42,    51,    54,    45</hex8>
<!-- ... 20 like lines cut -->
		</Elements>
	</Geometry>
	<Boundary>
		<fix>
			<node id="1" bc="xyz"></node>
			<node id="2" bc="xyz"></node>
			<node id="3" bc="xyz"></node>
			<node id="4" bc="xyz"></node>
			<node id="5" bc="xyz"></node>
			<node id="6" bc="xyz"></node>
			<node id="7" bc="xyz"></node>
			<node id="8" bc="xyz"></node>
			<node id="9" bc="xyz"></node>
		</fix>
	</Boundary>
	<LoadData>
		<loadcurve id="1">
			<loadpoint>0,0</loadpoint>
			<loadpoint>1,1</loadpoint>
		</loadcurve>
	</LoadData>
	<Step>
		<Control>
			<time_steps>10</time_steps>
			<step_size>0.1</step_size>
		</Control>
		<Boundary>
			<prescribe>
				<node id="93" bc="z" lc="1">1</node>
				<node id="96" bc="z" lc="1">1</node>
				<node id="99" bc="z" lc="1">1</node>
			</prescribe>
		</Boundary>
	</Step>
	<Step>
		<Control>
			<time_steps>50</time_steps>
			<step_size>0.05</step_size>
			<analysis type="dynamic"></analysis>
		</Control>
	</Step>
	<Output>
		<plotfile type="febio"></plotfile>
		<logfile>
			<element_data data="sx">3</element_data>
		</logfile>
	</Output>
</febio_spec>
