<?xml version="1.0" encoding="ISO-8859-1"?>
<!--
Problem Description:
	Multi-step and dynamic analysis.  A spring attaches two rigid plates.  The upper
	plate is fixed and the lower plate is allowed to fall with gravity from time t=0
	to t=1.  It then detaches from the spring, which is allowed to recoil dynamically.
Main Features:
	Multi-step analysis
	Dynamic analysis
	Body force
Secondary Features:
	
Materials:
	Neo-Hookean
	Rigid Bodies
Degrees of Freedom: 3817
Results:
	Steps Completed: 20
	Equilibrium Iterations: 155
	Right Hand Evaluations: 191
	Siffness Reformations: 24
	Other:
		The plate has a velocity of 1.29 at time t=1.5.
Comments:
	
-->
<febio_spec version="1.2">
	<Control>
		<title>Multi-step example</title>
	</Control>
	<Material>
		<material id="1" name="fixed" type="rigid body">
			<density>1</density>
		</material>
		<material id="2" name="moving" type="rigid body">
			<density>1</density>
		</material>
		<material id="3" name="spring" type="neo-Hookean">
			<E>2e6</E>
			<v>0</v>
		</material>
	</Material>
	<Geometry>
		<Nodes>
			<node id="1">-5.0000000e-001,-5.0000000e-001, 0.0000000e+000</node>
			<node id="2">-5.0000000e-001,-5.0000000e-001, 1.0000000e-001</node>
			<node id="3">-5.0000000e-001, 5.0000000e-001, 0.0000000e+000</node>
			<node id="4">-5.0000000e-001, 5.0000000e-001, 1.0000000e-001</node>
			<node id="5"> 5.0000000e-001,-5.0000000e-001, 0.0000000e+000</node>
			<node id="6"> 5.0000000e-001,-5.0000000e-001, 1.0000000e-001</node>
			<node id="7"> 5.0000000e-001, 5.0000000e-001, 0.0000000e+000</node>
			<node id="8"> 5.0000000e-001, 5.0000000e-001, 1.0000000e-001</node>
			<node id="9"> 4.5000000e-001, 0.0000000e+000,-1.5495946e+000</node>
			<node id="10"> 5.0000000e-001, 0.0000000e+000,-1.5495946e+000</node>
			<node id="11"> 4.5000000e-001, 0.0000000e+000,-1.4995946e+000</node>
			<node id="12"> 5.0000000e-001, 0.0000000e+000,-1.4995946e+000</node>
			<node id="13"> 4.4372277e-001,-7.4900608e-002,-1.5462501e+000</node>
			<node id="14"> 4.9302530e-001,-8.3222898e-002,-1.5462501e+000</node>
			<node id="15"> 4.4372277e-001,-7.4900608e-002,-1.4962501e+000</node>
			<node id="16"> 4.9302530e-001,-8.3222898e-002,-1.4962501e+000</node>
			<node id="17"> 4.2506622e-001,-1.4771158e-001,-1.5429056e+000</node>
			<node id="18"> 4.7229580e-001,-1.6412398e-001,-1.5429056e+000</node>
			<node id="19"> 4.2506622e-001,-1.4771158e-001,-1.4929056e+000</node>
			<node id="20"> 4.7229580e-001,-1.6412398e-001,-1.4929056e+000</node>
<!-- ... 1276 like lines cut -->
		</Nodes>
		<Elements>
			<hex8 id="1" mat="1">     1,     5,     7,     3,     2,     6,     8,     4</hex8>
			<hex8 id="2" mat="3">     9,    10,    12,    11,    13,    14,    16,    15</hex8>
			<hex8 id="3" mat="3">    13,    14,    16,    15,    17,    18,    20,    19</hex8>
			<hex8 id="4" mat="3">    17,    18,    20,    19,    21,    22,    24,    23</hex8>
			<hex8 id="5" mat="3">    21,    22,    24,    23,    25,    26,    28,    27</hex8>
			<hex8 id="6" mat="3">    25,    26,    28,    27,    29,    30,    32,    31</hex8>
			<hex8 id="7" mat="3">    29,    30,    32,    31,    33,    34,    36,    35</hex8>
			<hex8 id="8" mat="3">    33,    34,    36,    35,    37,    38,    40,    39</hex8>
			<hex8 id="9" mat="3">    37,    38,    40,    39,    41,    42,    44,    43</hex8>
			<hex8 id="10" mat="3">    41,    42,    44,    43,    45,    46,    48,    47</hex8>
			<hex8 id="11" mat="3">    45,    46,    48,    47,    49,    50,    52,    51</hex8>
			<hex8 id="12" mat="3">    49,    50,    52,    51,    53,    54,    56,    55</hex8>
			<hex8 id="13" mat="3">    53,    54,    56,    55,    57,    58,    60,    59</hex8>
			<hex8 id="14" mat="3">    57,    58,    60,    59,    61,    62,    64,    63</hex8>
			<hex8 id="15" mat="3">    61,    62,    64,    63,    65,    66,    68,    67</hex8>
			<hex8 id="16" mat="3">    65,    66,    68,    67,    69,    70,    72,    71</hex8>
			<hex8 id="17" mat="3">    69,    70,    72,    71,    73,    74,    76,    75</hex8>
			<hex8 id="18" mat="3">    73,    74,    76,    75,    77,    78,    80,    79</hex8>
			<hex8 id="19" mat="3">    77,    78,    80,    79,    81,    82,    84,    83</hex8>
			<hex8 id="20" mat="3">    81,    82,    84,    83,    85,    86,    88,    87</hex8>
<!-- ... 301 like lines cut -->
		</Elements>
	</Geometry>
	<Boundary>
		<contact type="rigid">
			<node id="1245" rb="1"></node>
			<node id="1246" rb="1"></node>
			<node id="1247" rb="1"></node>
			<node id="1248" rb="1"></node>
		</contact>
	</Boundary>
	<Loads>
		<body_force>
			<z lc="1">1</z>
		</body_force>
	</Loads>
	<Constraints>
		<rigid_body mat="1">
			<trans_x type="fixed"></trans_x>
			<trans_y type="fixed"></trans_y>
			<trans_z type="fixed"></trans_z>
			<rot_x type="fixed"></rot_x>
			<rot_y type="fixed"></rot_y>
			<rot_z type="fixed"></rot_z>
		</rigid_body>
		<rigid_body mat="2">
			<trans_x type="fixed"></trans_x>
			<trans_y type="fixed"></trans_y>
			<rot_x type="fixed"></rot_x>
			<rot_y type="fixed"></rot_y>
			<rot_z type="fixed"></rot_z>
		</rigid_body>
	</Constraints>
	<LoadData>
		<loadcurve id="1">
			<loadpoint>0,1</loadpoint>
			<loadpoint>2,1</loadpoint>
		</loadcurve>
	</LoadData>
	<Step>
		<Control>
			<time_steps>20</time_steps>
			<step_size>0.05</step_size>
			<analysis type="dynamic"></analysis>
		</Control>
		<Boundary>
			<contact type="rigid">
				<node id="1285" rb="2"></node>
				<node id="1286" rb="2"></node>
				<node id="1287" rb="2"></node>
				<node id="1288" rb="2"></node>
			</contact>
		</Boundary>
	</Step>
	<Step>
		<Control>
			<time_steps>20</time_steps>
			<step_size>0.05</step_size>
			<analysis type="dynamic"></analysis>
		</Control>
	</Step>
	<Output>
		<plotfile type="febio"></plotfile>
        <logfile>
          <element_data data="sz">306</element_data>
        </logfile>		
	</Output>
</febio_spec>
