<?xml version="1.0" encoding="ISO-8859-1"?>
<!--
Problem Description:
	Optimization input file for op01.feb.  One end of a cylindrical tube of Veronda-Westmann material
	is rigidly connected to a rigid body that is displaced 1 unit in the z-direction at t = 6.
Main Features:
	Optimization
Secondary Features:
	
Materials:
	Veronda-Westmann
	Rigid body
Degrees of Freedom: 5953
Results:
	Steps Completed: 10
	Equilibrium Iterations: 29
	Right Hand Evaluations: 39
	Siffness Reformations: 29
	Other:
		The maximum effective Lagrange strain is 0.32 at time t = 6.
		Note that these results are for the optimized parameters:
		VWMaterial.c1   : 0.01
		VWMaterial.c2   : 9.2333
Comments:
	
-->
<febio_spec version="1.2">
	<Module type="solid"/>
	<Control>
		<time_steps>10</time_steps>
		<step_size>0.6</step_size>
		<max_refs>15</max_refs>
		<max_ups>0</max_ups>
		<dtol>0.001</dtol>
		<etol>0.01</etol>
		<rtol>0</rtol>
		<lstol>0.9</lstol>
		<time_stepper>
			<dtmin>0.01</dtmin>
			<dtmax>0.6</dtmax>
			<max_retries>5</max_retries>
			<opt_iter>10</opt_iter>
		</time_stepper>
		<analysis type="static"/>
	</Control>
	<Globals>
		<Constants>
			<T>0</T>
			<R>0</R>
			<Fc>0</Fc>
		</Constants>
	</Globals>
	<Material>
		<material id="1" name="VWMaterial" type="Veronda-Westmann">
			<density>9.6e-07</density>
			<c1>0.01</c1>
			<c2>0.11</c2>
			<k>100</k>
		</material>
		<material id="2" name="rigid" type="rigid body">
			<density>1</density>
			<center_of_mass>0,0,0</center_of_mass>
		</material>
	</Material>
	<Geometry>
		<Nodes>
			<node id="1">  4.5000000e-01,  0.0000000e+00,  0.0000000e+00</node>
			<node id="2">  5.0000000e-01,  0.0000000e+00,  0.0000000e+00</node>
			<node id="3">  4.4135338e-01,  8.7790643e-02,  0.0000000e+00</node>
			<node id="4">  4.9039264e-01,  9.7545159e-02,  0.0000000e+00</node>
			<node id="5">  4.1574579e-01,  1.7220754e-01,  0.0000000e+00</node>
			<node id="6">  4.6193977e-01,  1.9134171e-01,  0.0000000e+00</node>
			<node id="7">  3.7416133e-01,  2.5000660e-01,  0.0000000e+00</node>
			<node id="8">  4.1573481e-01,  2.7778511e-01,  0.0000000e+00</node>
			<node id="9">  3.1819806e-01,  3.1819805e-01,  0.0000000e+00</node>
			<node id="10">  3.5355340e-01,  3.5355339e-01,  0.0000000e+00</node>
			<node id="11">  2.5000661e-01,  3.7416132e-01,  0.0000000e+00</node>
			<node id="12">  2.7778512e-01,  4.1573480e-01,  0.0000000e+00</node>
			<node id="13">  1.7220755e-01,  4.1574579e-01,  0.0000000e+00</node>
			<node id="14">  1.9134173e-01,  4.6193976e-01,  0.0000000e+00</node>
			<node id="15">  8.7790655e-02,  4.4135337e-01,  0.0000000e+00</node>
			<node id="16">  9.7545173e-02,  4.9039264e-01,  0.0000000e+00</node>
			<node id="17">  1.2057703e-08,  4.5000000e-01,  0.0000000e+00</node>
			<node id="18">  1.3397448e-08,  5.0000000e-01,  0.0000000e+00</node>
			<node id="19"> -8.7790632e-02,  4.4135338e-01,  0.0000000e+00</node>
			<node id="20"> -9.7545146e-02,  4.9039264e-01,  0.0000000e+00</node>
<!-- ... 2092 like lines cut -->
		</Nodes>
		<Elements>
			<hex8 id="1" mat="1">     1,     2,     4,     3,    65,    66,    68,    67</hex8>
			<hex8 id="2" mat="1">     3,     4,     6,     5,    67,    68,    70,    69</hex8>
			<hex8 id="3" mat="1">     5,     6,     8,     7,    69,    70,    72,    71</hex8>
			<hex8 id="4" mat="1">     7,     8,    10,     9,    71,    72,    74,    73</hex8>
			<hex8 id="5" mat="1">     9,    10,    12,    11,    73,    74,    76,    75</hex8>
			<hex8 id="6" mat="1">    11,    12,    14,    13,    75,    76,    78,    77</hex8>
			<hex8 id="7" mat="1">    13,    14,    16,    15,    77,    78,    80,    79</hex8>
			<hex8 id="8" mat="1">    15,    16,    18,    17,    79,    80,    82,    81</hex8>
			<hex8 id="9" mat="1">    17,    18,    20,    19,    81,    82,    84,    83</hex8>
			<hex8 id="10" mat="1">    19,    20,    22,    21,    83,    84,    86,    85</hex8>
			<hex8 id="11" mat="1">    21,    22,    24,    23,    85,    86,    88,    87</hex8>
			<hex8 id="12" mat="1">    23,    24,    26,    25,    87,    88,    90,    89</hex8>
			<hex8 id="13" mat="1">    25,    26,    28,    27,    89,    90,    92,    91</hex8>
			<hex8 id="14" mat="1">    27,    28,    30,    29,    91,    92,    94,    93</hex8>
			<hex8 id="15" mat="1">    29,    30,    32,    31,    93,    94,    96,    95</hex8>
			<hex8 id="16" mat="1">    31,    32,    34,    33,    95,    96,    98,    97</hex8>
			<hex8 id="17" mat="1">    33,    34,    36,    35,    97,    98,   100,    99</hex8>
			<hex8 id="18" mat="1">    35,    36,    38,    37,    99,   100,   102,   101</hex8>
			<hex8 id="19" mat="1">    37,    38,    40,    39,   101,   102,   104,   103</hex8>
			<hex8 id="20" mat="1">    39,    40,    42,    41,   103,   104,   106,   105</hex8>
<!-- ... 1004 like lines cut -->
		</Elements>
	</Geometry>
	<Boundary>
		<fix>
			<node id="1" bc="xyz"/>
			<node id="2" bc="xyz"/>
			<node id="3" bc="xyz"/>
			<node id="4" bc="xyz"/>
			<node id="5" bc="xyz"/>
			<node id="6" bc="xyz"/>
			<node id="7" bc="xyz"/>
			<node id="8" bc="xyz"/>
			<node id="9" bc="xyz"/>
			<node id="10" bc="xyz"/>
			<node id="11" bc="xyz"/>
			<node id="12" bc="xyz"/>
			<node id="13" bc="xyz"/>
			<node id="14" bc="xyz"/>
			<node id="15" bc="xyz"/>
			<node id="16" bc="xyz"/>
			<node id="17" bc="xyz"/>
			<node id="18" bc="xyz"/>
			<node id="19" bc="xyz"/>
			<node id="20" bc="xyz"/>
<!-- ... 44 like lines cut -->
		</fix>
		<contact type="rigid">
			<node id="2049" rb="2"></node>
			<node id="2050" rb="2"></node>
			<node id="2051" rb="2"></node>
			<node id="2052" rb="2"></node>
			<node id="2053" rb="2"></node>
			<node id="2054" rb="2"></node>
			<node id="2055" rb="2"></node>
			<node id="2056" rb="2"></node>
			<node id="2057" rb="2"></node>
			<node id="2058" rb="2"></node>
			<node id="2059" rb="2"></node>
			<node id="2060" rb="2"></node>
			<node id="2061" rb="2"></node>
			<node id="2062" rb="2"></node>
			<node id="2063" rb="2"></node>
			<node id="2064" rb="2"></node>
			<node id="2065" rb="2"></node>
			<node id="2066" rb="2"></node>
			<node id="2067" rb="2"></node>
			<node id="2068" rb="2"></node>
<!-- ... 44 like lines cut -->
		</contact>
	</Boundary>
	<Constraints>
		<rigid_body mat="2">
			<trans_x type="fixed"></trans_x>
			<trans_y type="fixed"></trans_y>
			<rot_x type="fixed"></rot_x>
			<rot_y type="fixed"></rot_y>
			<rot_z type="fixed"></rot_z>
		</rigid_body>
		<rigid_body mat="2">
			<trans_z type="prescribed" lc="2">1</trans_z>
		</rigid_body>
	</Constraints>
	<LoadData>
		<loadcurve id="1" type="linear">
			<loadpoint>0,1</loadpoint>
			<loadpoint>6,1</loadpoint>
		</loadcurve>
		<loadcurve id="2" type="smooth">
			<loadpoint>0,0</loadpoint>
			<loadpoint>6,1</loadpoint>
		</loadcurve>
	</LoadData>
	<Output>
		<plotfile type="febio">
			<var type="displacement"/>
			<var type="stress"/>
		</plotfile>
		<logfile>
			<rigid_body_data data="Fz"/>
			<rigid_body_data data="Fz"/>
		</logfile>
	</Output>
</febio_spec>
