<?xml version="1.0" encoding="ISO-8859-1"?>
<!--
Problem Description:
	An 8x2x2 element block is attached with rigid contact to a rigid body that has an
	applied force of 0.05 units at time t=1.
Main Features:
	Rigid Contact
Secondary Features:
	
Materials:
	Neo-Hookean
Degrees of Freedom: 190
Results:
	Steps Completed: 10
	Equilibrium Iterations: 30
	Right Hand Evaluations: 40
	Siffness Reformations: 10
	Other:
		The x-displacement of the rigid body is 0.205 at time t=1.
Comments:
	
-->
<febio_spec version="1.2">
	<Control>
		<title>Force on Rigid Body</title>
		<time_steps>10</time_steps>
		<step_size>0.1</step_size>
		<max_refs>15</max_refs>
		<max_ups>10</max_ups>
		<dtol>0.001</dtol>
		<etol>0.01</etol>
		<rtol>0</rtol>
		<lstol>0.9</lstol>
		<time_stepper>
			<dtmin>0.01</dtmin>
			<dtmax>0.1</dtmax>
			<max_retries>5</max_retries>
			<opt_iter>10</opt_iter>
		</time_stepper>
	</Control>
	<Material>
		<material id="1" name="Material 1" type="rigid body">
			<density>1</density>
		</material>
		<material id="2" name="Material 2" type="neo-Hookean">
			<E>1</E>
			<v>0</v>
		</material>
	</Material>
	<Geometry>
		<Nodes>
			<node id="1">-2.0000000e+000,-5.0000000e-001, 0.0000000e+000</node>
			<node id="2">-2.0000000e+000,-5.0000000e-001, 5.0000000e-001</node>
			<node id="3">-2.0000000e+000,-5.0000000e-001, 1.0000000e+000</node>
			<node id="4">-2.0000000e+000, 0.0000000e+000, 0.0000000e+000</node>
			<node id="5">-2.0000000e+000, 0.0000000e+000, 5.0000000e-001</node>
			<node id="6">-2.0000000e+000, 0.0000000e+000, 1.0000000e+000</node>
			<node id="7">-2.0000000e+000, 5.0000000e-001, 0.0000000e+000</node>
			<node id="8">-2.0000000e+000, 5.0000000e-001, 5.0000000e-001</node>
			<node id="9">-2.0000000e+000, 5.0000000e-001, 1.0000000e+000</node>
			<node id="10">-1.5000000e+000,-5.0000000e-001, 0.0000000e+000</node>
			<node id="11">-1.5000000e+000,-5.0000000e-001, 5.0000000e-001</node>
			<node id="12">-1.5000000e+000,-5.0000000e-001, 1.0000000e+000</node>
			<node id="13">-1.5000000e+000, 0.0000000e+000, 0.0000000e+000</node>
			<node id="14">-1.5000000e+000, 0.0000000e+000, 5.0000000e-001</node>
			<node id="15">-1.5000000e+000, 0.0000000e+000, 1.0000000e+000</node>
			<node id="16">-1.5000000e+000, 5.0000000e-001, 0.0000000e+000</node>
			<node id="17">-1.5000000e+000, 5.0000000e-001, 5.0000000e-001</node>
			<node id="18">-1.5000000e+000, 5.0000000e-001, 1.0000000e+000</node>
			<node id="19">-1.0000000e+000,-5.0000000e-001, 0.0000000e+000</node>
			<node id="20">-1.0000000e+000,-5.0000000e-001, 5.0000000e-001</node>
<!-- ... 69 like lines cut -->
		</Nodes>
		<Elements>
			<hex8 id="1" mat="2">     1,    10,    13,     4,     2,    11,    14,     5</hex8>
			<hex8 id="2" mat="2">     2,    11,    14,     5,     3,    12,    15,     6</hex8>
			<hex8 id="3" mat="2">     4,    13,    16,     7,     5,    14,    17,     8</hex8>
			<hex8 id="4" mat="2">     5,    14,    17,     8,     6,    15,    18,     9</hex8>
			<hex8 id="5" mat="2">    10,    19,    22,    13,    11,    20,    23,    14</hex8>
			<hex8 id="6" mat="2">    11,    20,    23,    14,    12,    21,    24,    15</hex8>
			<hex8 id="7" mat="2">    13,    22,    25,    16,    14,    23,    26,    17</hex8>
			<hex8 id="8" mat="2">    14,    23,    26,    17,    15,    24,    27,    18</hex8>
			<hex8 id="9" mat="2">    19,    28,    31,    22,    20,    29,    32,    23</hex8>
			<hex8 id="10" mat="2">    20,    29,    32,    23,    21,    30,    33,    24</hex8>
			<hex8 id="11" mat="2">    22,    31,    34,    25,    23,    32,    35,    26</hex8>
			<hex8 id="12" mat="2">    23,    32,    35,    26,    24,    33,    36,    27</hex8>
			<hex8 id="13" mat="2">    28,    37,    40,    31,    29,    38,    41,    32</hex8>
			<hex8 id="14" mat="2">    29,    38,    41,    32,    30,    39,    42,    33</hex8>
			<hex8 id="15" mat="2">    31,    40,    43,    34,    32,    41,    44,    35</hex8>
			<hex8 id="16" mat="2">    32,    41,    44,    35,    33,    42,    45,    36</hex8>
			<hex8 id="17" mat="2">    37,    46,    49,    40,    38,    47,    50,    41</hex8>
			<hex8 id="18" mat="2">    38,    47,    50,    41,    39,    48,    51,    42</hex8>
			<hex8 id="19" mat="2">    40,    49,    52,    43,    41,    50,    53,    44</hex8>
			<hex8 id="20" mat="2">    41,    50,    53,    44,    42,    51,    54,    45</hex8>
<!-- ... 13 like lines cut -->
		</Elements>
	</Geometry>
	<Boundary>
		<fix>
			<node id="1" bc="xyz"></node>
			<node id="2" bc="xyz"></node>
			<node id="3" bc="xyz"></node>
			<node id="4" bc="xyz"></node>
			<node id="5" bc="xyz"></node>
			<node id="6" bc="xyz"></node>
			<node id="7" bc="xyz"></node>
			<node id="8" bc="xyz"></node>
			<node id="9" bc="xyz"></node>
		</fix>
		<contact type="rigid">
			<node id="73" rb="1"></node>
			<node id="74" rb="1"></node>
			<node id="75" rb="1"></node>
			<node id="76" rb="1"></node>
			<node id="77" rb="1"></node>
			<node id="78" rb="1"></node>
			<node id="79" rb="1"></node>
			<node id="80" rb="1"></node>
			<node id="81" rb="1"></node>
		</contact>
	</Boundary>
	<Constraints>
		<rigid_body mat="1">
			<trans_x type="force" lc="1">1.0</trans_x>
		</rigid_body>
	</Constraints>
	<LoadData>
		<loadcurve id="1">
			<loadpoint>0,0</loadpoint>
			<loadpoint>1,0.05</loadpoint>
		</loadcurve>
	</LoadData>
	<Output>
		<plotfile type="febio"></plotfile>
		<logfile>
			<element_data data="sx">32</element_data>
		</logfile>
	</Output>
</febio_spec>
