<?xml version="1.0" encoding="ISO-8859-1"?>
<!--
Problem Description:
	Simulation of an engine with two cylinders and a prescribed rotation of 6.2 radians at
	time t=62 on the crank.
Main Features:
	Rigid Bodies
	Rigid Joints
Secondary Features:
	Prescribed rotation
Materials:
	Neo-Hookean
	Rigid Bodies
Degrees of Freedom: 10431
Results:
	Steps Completed: 62
	Equilibrium Iterations: 339
	Right Hand Evaluations: 574
	Siffness Reformations: 186
	Other:
		The maximum effective strain is 0.639 at time t=46.
Comments:
	
-->
<febio_spec version="1.2">
	<Control>
		<title>Engine</title>
		<time_steps>62</time_steps>
		<step_size>1</step_size>
		<max_refs>15</max_refs>
		<max_ups>10</max_ups>
		<dtol>0.001</dtol>
		<etol>0.01</etol>
		<rtol>0</rtol>
		<lstol>0.9</lstol>
		<pressure_stiffness>1</pressure_stiffness>
		<plot_level>PLOT_DEFAULT</plot_level>
		<optimize_bw>1</optimize_bw>
	</Control>
	<Material>
		<material id="1" name="chamber1" type="neo-Hookean">
			<E>1</E>
			<v>0</v>
		</material>
		<material id="2" name="chamber2" type="neo-Hookean">
			<E>1</E>
			<v>0</v>
		</material>
		<material id="3" name="shaft2" type="rigid body">
			<density>1</density>
		</material>
		<material id="4" name="shaft1" type="rigid body">
			<density>1</density>
		</material>
		<material id="5" name="crank" type="rigid body">
			<density>1</density>
			<center_of_mass>0,0,0</center_of_mass>
		</material>
		<material id="6" name="piston1" type="rigid body">
			<density>1</density>
		</material>
		<material id="7" name="piston2" type="rigid body">
			<density>1</density>
		</material>
	</Material>
	<Geometry>
		<Nodes>
			<node id="1"> 4.9718440e-002,-3.5355339e-001,-3.5359309e-001</node>
			<node id="2"> 4.9718440e-002,-2.3570226e-001,-3.5359309e-001</node>
			<node id="3"> 4.9718440e-002,-1.1785113e-001,-3.5359309e-001</node>
			<node id="4"> 4.9718440e-002, 1.3997750e-009,-3.5359309e-001</node>
			<node id="5"> 4.9718440e-002, 1.1785113e-001,-3.5359309e-001</node>
			<node id="6"> 4.9718440e-002, 2.3570226e-001,-3.5359309e-001</node>
			<node id="7"> 4.9718440e-002, 3.5355339e-001,-3.5359309e-001</node>
			<node id="8"> 4.9812288e-002,-3.5355339e-001,-2.3574200e-001</node>
			<node id="9"> 4.9812288e-002,-2.3570226e-001,-2.3574200e-001</node>
			<node id="10"> 4.9812288e-002,-1.1785113e-001,-2.3574200e-001</node>
			<node id="11"> 4.9812288e-002, 1.3997750e-009,-2.3574200e-001</node>
			<node id="12"> 4.9812288e-002, 1.1785113e-001,-2.3574200e-001</node>
			<node id="13"> 4.9812288e-002, 2.3570226e-001,-2.3574200e-001</node>
			<node id="14"> 4.9812288e-002, 3.5355339e-001,-2.3574200e-001</node>
			<node id="15"> 4.9906136e-002,-3.5355339e-001,-1.1789091e-001</node>
			<node id="16"> 4.9906136e-002,-2.3570226e-001,-1.1789091e-001</node>
			<node id="17"> 4.9906136e-002,-1.1785113e-001,-1.1789091e-001</node>
			<node id="18"> 4.9906136e-002, 1.3997750e-009,-1.1789091e-001</node>
			<node id="19"> 4.9906136e-002, 1.1785113e-001,-1.1789091e-001</node>
			<node id="20"> 4.9906136e-002, 2.3570226e-001,-1.1789091e-001</node>
<!-- ... 7704 like lines cut -->
		</Nodes>
		<Elements>
			<hex8 id="1" mat="5">     1,     8,     9,     2,   194,   201,   202,   195</hex8>
			<hex8 id="2" mat="5">     2,     9,    10,     3,   195,   202,   203,   196</hex8>
			<hex8 id="3" mat="5">     3,    10,    11,     4,   196,   203,   204,   197</hex8>
			<hex8 id="4" mat="5">     4,    11,    12,     5,   197,   204,   205,   198</hex8>
			<hex8 id="5" mat="5">     5,    12,    13,     6,   198,   205,   206,   199</hex8>
			<hex8 id="6" mat="5">     6,    13,    14,     7,   199,   206,   207,   200</hex8>
			<hex8 id="7" mat="5">     8,    15,    16,     9,   201,   208,   209,   202</hex8>
			<hex8 id="8" mat="5">     9,    16,    17,    10,   202,   209,   210,   203</hex8>
			<hex8 id="9" mat="5">    10,    17,    18,    11,   203,   210,   211,   204</hex8>
			<hex8 id="10" mat="5">    11,    18,    19,    12,   204,   211,   212,   205</hex8>
			<hex8 id="11" mat="5">    12,    19,    20,    13,   205,   212,   213,   206</hex8>
			<hex8 id="12" mat="5">    13,    20,    21,    14,   206,   213,   214,   207</hex8>
			<hex8 id="13" mat="5">    15,    22,    23,    16,   208,   215,   216,   209</hex8>
			<hex8 id="14" mat="5">    16,    23,    24,    17,   209,   216,   217,   210</hex8>
			<hex8 id="15" mat="5">    17,    24,    25,    18,   210,   217,   218,   211</hex8>
			<hex8 id="16" mat="5">    18,    25,    26,    19,   211,   218,   219,   212</hex8>
			<hex8 id="17" mat="5">    19,    26,    27,    20,   212,   219,   220,   213</hex8>
			<hex8 id="18" mat="5">    20,    27,    28,    21,   213,   220,   221,   214</hex8>
			<hex8 id="19" mat="5">    22,    29,    30,    23,   215,   222,   223,   216</hex8>
			<hex8 id="20" mat="5">    23,    30,    31,    24,   216,   223,   224,   217</hex8>
<!-- ... 5146 like lines cut -->
		</Elements>
	</Geometry>
	<Boundary>
		<fix>
			<node id="5409" bc="xyz"></node>
			<node id="5410" bc="xyz"></node>
			<node id="5411" bc="xyz"></node>
			<node id="5412" bc="xyz"></node>
			<node id="5413" bc="xyz"></node>
			<node id="5414" bc="xyz"></node>
			<node id="5415" bc="xyz"></node>
			<node id="5416" bc="xyz"></node>
			<node id="5417" bc="xyz"></node>
			<node id="5418" bc="xyz"></node>
			<node id="5419" bc="xyz"></node>
			<node id="5420" bc="xyz"></node>
			<node id="5421" bc="xyz"></node>
			<node id="5422" bc="xyz"></node>
			<node id="5423" bc="xyz"></node>
			<node id="5424" bc="xyz"></node>
			<node id="5425" bc="xyz"></node>
			<node id="5426" bc="xyz"></node>
			<node id="5427" bc="xyz"></node>
			<node id="5428" bc="xyz"></node>
<!-- ... 366 like lines cut -->
		</fix>
		<contact type="rigid">
			<node id="5602" rb="6"></node>
			<node id="5603" rb="6"></node>
			<node id="5604" rb="6"></node>
			<node id="5605" rb="6"></node>
			<node id="5606" rb="6"></node>
			<node id="5607" rb="6"></node>
			<node id="5608" rb="6"></node>
			<node id="5609" rb="6"></node>
			<node id="5610" rb="6"></node>
			<node id="5611" rb="6"></node>
			<node id="5612" rb="6"></node>
			<node id="5613" rb="6"></node>
			<node id="5614" rb="6"></node>
			<node id="5615" rb="6"></node>
			<node id="5616" rb="6"></node>
			<node id="5617" rb="6"></node>
			<node id="5618" rb="6"></node>
			<node id="5619" rb="6"></node>
			<node id="5620" rb="6"></node>
			<node id="5621" rb="6"></node>
<!-- ... 173 like lines cut -->
		</contact>
		<contact type="rigid">
			<node id="3479" rb="7"></node>
			<node id="3480" rb="7"></node>
			<node id="3481" rb="7"></node>
			<node id="3482" rb="7"></node>
			<node id="3483" rb="7"></node>
			<node id="3484" rb="7"></node>
			<node id="3485" rb="7"></node>
			<node id="3486" rb="7"></node>
			<node id="3487" rb="7"></node>
			<node id="3488" rb="7"></node>
			<node id="3489" rb="7"></node>
			<node id="3490" rb="7"></node>
			<node id="3491" rb="7"></node>
			<node id="3492" rb="7"></node>
			<node id="3493" rb="7"></node>
			<node id="3494" rb="7"></node>
			<node id="3495" rb="7"></node>
			<node id="3496" rb="7"></node>
			<node id="3497" rb="7"></node>
			<node id="3498" rb="7"></node>
<!-- ... 173 like lines cut -->
		</contact>
		<contact type="rigid joint">
			<tolerance>0.1</tolerance>
			<penalty>10</penalty>
			<body_a>5</body_a>
			<body_b>4</body_b>
			<joint>-0.868,0.419154,0</joint>
		</contact>
		<contact type="rigid joint">
			<tolerance>0.1</tolerance>
			<penalty>10</penalty>
			<body_a>5</body_a>
			<body_b>3</body_b>
			<joint>-0.2784,-0.34,0</joint>
		</contact>
		<contact type="rigid joint">
			<tolerance>0.1</tolerance>
			<penalty>10</penalty>
			<body_a>6</body_a>
			<body_b>4</body_b>
			<joint>-0.85,0,1.4</joint>
		</contact>
		<contact type="rigid joint">
			<tolerance>0.1</tolerance>
			<penalty>10</penalty>
			<body_a>7</body_a>
			<body_b>3</body_b>
			<joint>-0.25,0,1.4</joint>
		</contact>
	</Boundary>
	<Constraints>
		<rigid_body mat="3">
			<trans_x type="fixed"></trans_x>
			<rot_y type="fixed"></rot_y>
			<rot_z type="fixed"></rot_z>
		</rigid_body>
		<rigid_body mat="4">
			<trans_x type="fixed"></trans_x>
			<rot_y type="fixed"></rot_y>
			<rot_z type="fixed"></rot_z>
		</rigid_body>
		<rigid_body mat="5">
			<trans_x type="fixed"></trans_x>
			<trans_y type="fixed"></trans_y>
			<trans_z type="fixed"></trans_z>
			<rot_x type="prescribed" lc="1">1</rot_x>
			<rot_y type="fixed"></rot_y>
			<rot_z type="fixed"></rot_z>
		</rigid_body>
		<rigid_body mat="6">
			<trans_x type="fixed"></trans_x>
			<trans_y type="fixed"></trans_y>
			<rot_x type="fixed"></rot_x>
			<rot_y type="fixed"></rot_y>
			<rot_z type="fixed"></rot_z>
		</rigid_body>
		<rigid_body mat="7">
			<trans_x type="fixed"></trans_x>
			<trans_y type="fixed"></trans_y>
			<rot_x type="fixed"></rot_x>
			<rot_y type="fixed"></rot_y>
			<rot_z type="fixed"></rot_z>
		</rigid_body>
	</Constraints>
	<LoadData>
		<loadcurve id="1">
			<loadpoint>0,0</loadpoint>
			<loadpoint>62,6.2</loadpoint>
		</loadcurve>
	</LoadData>
	<Output>
		<plotfile type="febio"></plotfile>
		<logfile>
			<element_data data="Ez">2328</element_data>
		</logfile>
	</Output>
</febio_spec>
