<?xml version="1.0" encoding="ISO-8859-1"?>
<!--
Problem Description:
	A cylinder is attached to a rigid disk with a prescribed x-rotation and z-translation,
	each of 1 unit at time t=1.
Main Features:
	Rigid Bodies
Secondary Features:
	Prescribed displacement and rotation
Materials:
	Neo-Hookean
	Rigid Body
Degrees of Freedom: 4055
Results:
	Steps Completed: 10
	Equilibrium Iterations: 41
	Right Hand Evaluations: 51
	Siffness Reformations: 10
	Other:
		The first node down from highest edge of the cylinder has a z-displacement
		of 1.547 at time t=1.
Comments:
	Note that rigid contact was not necessary because the cylinder and the disk together were
	all one mesh.
-->
<febio_spec version="1.2">
	<Control>
		<title>Bellows</title>
		<time_steps>10</time_steps>
		<step_size>0.1</step_size>
		<time_stepper>
			<dtmin>0.01</dtmin>
			<dtmax>0.1</dtmax>
			<max_retries>15</max_retries>
			<opt_iter>10</opt_iter>
		</time_stepper>
	</Control>
	<Material>
		<material id="1" type="neo-Hookean">
			<E>1</E>
			<v>0.4</v>
		</material>
		<material id="2" type="rigid body">
			<density>1</density>
		</material>
	</Material>
	<Geometry>
		<Nodes>
			<node id="1">-3.5355338e-001,-3.5355338e-001, 0.0000000e+000</node>
			<node id="2">-3.5355338e-001,-2.3570226e-001, 0.0000000e+000</node>
			<node id="3">-3.5355338e-001,-1.1785113e-001, 0.0000000e+000</node>
			<node id="4">-3.5355338e-001, 0.0000000e+000, 0.0000000e+000</node>
			<node id="5">-3.5355338e-001, 1.1785113e-001, 0.0000000e+000</node>
			<node id="6">-3.5355338e-001, 2.3570226e-001, 0.0000000e+000</node>
			<node id="7">-3.5355338e-001, 3.5355338e-001, 0.0000000e+000</node>
			<node id="8">-2.3570226e-001,-3.5355338e-001, 0.0000000e+000</node>
			<node id="9">-2.3570226e-001,-2.3570226e-001, 0.0000000e+000</node>
			<node id="10">-2.3570226e-001,-1.1785113e-001, 0.0000000e+000</node>
			<node id="11">-2.3570226e-001, 0.0000000e+000, 0.0000000e+000</node>
			<node id="12">-2.3570226e-001, 1.1785113e-001, 0.0000000e+000</node>
			<node id="13">-2.3570226e-001, 2.3570226e-001, 0.0000000e+000</node>
			<node id="14">-2.3570226e-001, 3.5355338e-001, 0.0000000e+000</node>
			<node id="15">-1.1785113e-001,-3.5355338e-001, 0.0000000e+000</node>
			<node id="16">-1.1785113e-001,-2.3570226e-001, 0.0000000e+000</node>
			<node id="17">-1.1785113e-001,-1.1785113e-001, 0.0000000e+000</node>
			<node id="18">-1.1785113e-001, 0.0000000e+000, 0.0000000e+000</node>
			<node id="19">-1.1785113e-001, 1.1785113e-001, 0.0000000e+000</node>
			<node id="20">-1.1785113e-001, 2.3570226e-001, 0.0000000e+000</node>
<!-- ... 2103 like lines cut -->
		</Nodes>
		<Elements>
			<hex8 id="1" mat="1">     1,     8,     9,     2,   194,   201,   202,   195</hex8>
			<hex8 id="2" mat="1">     2,     9,    10,     3,   195,   202,   203,   196</hex8>
			<hex8 id="3" mat="1">     3,    10,    11,     4,   196,   203,   204,   197</hex8>
			<hex8 id="4" mat="1">     4,    11,    12,     5,   197,   204,   205,   198</hex8>
			<hex8 id="5" mat="1">     5,    12,    13,     6,   198,   205,   206,   199</hex8>
			<hex8 id="6" mat="1">     6,    13,    14,     7,   199,   206,   207,   200</hex8>
			<hex8 id="7" mat="1">     8,    15,    16,     9,   201,   208,   209,   202</hex8>
			<hex8 id="8" mat="1">     9,    16,    17,    10,   202,   209,   210,   203</hex8>
			<hex8 id="9" mat="1">    10,    17,    18,    11,   203,   210,   211,   204</hex8>
			<hex8 id="10" mat="1">    11,    18,    19,    12,   204,   211,   212,   205</hex8>
			<hex8 id="11" mat="1">    12,    19,    20,    13,   205,   212,   213,   206</hex8>
			<hex8 id="12" mat="1">    13,    20,    21,    14,   206,   213,   214,   207</hex8>
			<hex8 id="13" mat="1">    15,    22,    23,    16,   208,   215,   216,   209</hex8>
			<hex8 id="14" mat="1">    16,    23,    24,    17,   209,   216,   217,   210</hex8>
			<hex8 id="15" mat="1">    17,    24,    25,    18,   210,   217,   218,   211</hex8>
			<hex8 id="16" mat="1">    18,    25,    26,    19,   211,   218,   219,   212</hex8>
			<hex8 id="17" mat="1">    19,    26,    27,    20,   212,   219,   220,   213</hex8>
			<hex8 id="18" mat="1">    20,    27,    28,    21,   213,   220,   221,   214</hex8>
			<hex8 id="19" mat="1">    22,    29,    30,    23,   215,   222,   223,   216</hex8>
			<hex8 id="20" mat="1">    23,    30,    31,    24,   216,   223,   224,   217</hex8>
<!-- ... 1780 like lines cut -->
		</Elements>
	</Geometry>
	<Boundary>
		<fix>
			<node id="1" bc="x"></node>
			<node id="1" bc="y"></node>
			<node id="1" bc="z"></node>
			<node id="2" bc="x"></node>
			<node id="2" bc="y"></node>
			<node id="2" bc="z"></node>
			<node id="3" bc="x"></node>
			<node id="3" bc="y"></node>
			<node id="3" bc="z"></node>
			<node id="4" bc="x"></node>
			<node id="4" bc="y"></node>
			<node id="4" bc="z"></node>
			<node id="5" bc="x"></node>
			<node id="5" bc="y"></node>
			<node id="5" bc="z"></node>
			<node id="6" bc="x"></node>
			<node id="6" bc="y"></node>
			<node id="6" bc="z"></node>
			<node id="7" bc="x"></node>
			<node id="7" bc="y"></node>
			<node id="7" bc="z"></node>
			<node id="8" bc="x"></node>
			<node id="8" bc="y"></node>
			<node id="8" bc="z"></node>
			<node id="9" bc="x"></node>
			<node id="9" bc="y"></node>
			<node id="9" bc="z"></node>
			<node id="10" bc="x"></node>
			<node id="10" bc="y"></node>
			<node id="10" bc="z"></node>
			<node id="11" bc="x"></node>
			<node id="11" bc="y"></node>
			<node id="11" bc="z"></node>
			<node id="12" bc="x"></node>
			<node id="12" bc="y"></node>
			<node id="12" bc="z"></node>
			<node id="13" bc="x"></node>
			<node id="13" bc="y"></node>
			<node id="13" bc="z"></node>
			<node id="14" bc="x"></node>
			<node id="14" bc="y"></node>
			<node id="14" bc="z"></node>
			<node id="15" bc="x"></node>
			<node id="15" bc="y"></node>
			<node id="15" bc="z"></node>
			<node id="16" bc="x"></node>
			<node id="16" bc="y"></node>
			<node id="16" bc="z"></node>
			<node id="17" bc="x"></node>
			<node id="17" bc="y"></node>
			<node id="17" bc="z"></node>
			<node id="18" bc="x"></node>
			<node id="18" bc="y"></node>
			<node id="18" bc="z"></node>
			<node id="19" bc="x"></node>
			<node id="19" bc="y"></node>
			<node id="19" bc="z"></node>
			<node id="20" bc="x"></node>
			<node id="20" bc="y"></node>
			<node id="20" bc="z"></node>
<!-- ... 519 like lines cut -->
		</fix>
	</Boundary>
	<Constraints>
		<rigid_body mat="2">
			<trans_z type="prescribed" lc="1">1</trans_z>
			<rot_x type="prescribed" lc="1">1</rot_x>
		</rigid_body>
	</Constraints>
	<LoadData>
		<loadcurve id="1">
			<loadpoint>0,0</loadpoint>
			<loadpoint>1,1</loadpoint>
		</loadcurve>
	</LoadData>
	<Output>
		<plotfile type="febio"></plotfile>
		<logfile>
			<element_data data="sx">144</element_data>
		</logfile>
	</Output>
</febio_spec>
