<?xml version="1.0" encoding="ISO-8859-1"?>
<!--
Problem Description:
	A cylinder is confined between two rigid disks; the top one constrained in x,y,z, and
	the bottom one connected by a rigid bar and rigid joints to a vertical rotating disk
	with prescribed rotation of 6.2 radians in time t=62.
Main Features:
	Rigid Bodies
	Rigid Joints
Secondary Features:
	
Materials:
	Neo-Hookean
Degrees of Freedom: 5216
Results:
	Steps Completed: 62
	Equilibrium Iterations: 498
	Right Hand Evaluations: 790
	Stiffness Reformations: 187
	Other:
		The cylinder has a maximum y-displacement of 0.108 units at time t=48.
Comments:
	
-->
<febio_spec version="1.2">
	<Control>
		<title>Bellows</title>
		<time_steps>62</time_steps>
		<step_size>1</step_size>
		<max_refs>15</max_refs>
		<max_ups>10</max_ups>
		<dtol>0.001</dtol>
		<etol>0.01</etol>
		<rtol>1e+010</rtol>
		<lstol>0.9</lstol>
		<pressure_stiffness>1</pressure_stiffness>
		<plot_level>PLOT_DEFAULT</plot_level>
		<optimize_bw>1</optimize_bw>
	</Control>
	<Material>
		<material id="1" name="Material01" type="neo-Hookean">
			<E>1</E>
			<v>0.1</v>
		</material>
		<material id="2" name="Material02" type="rigid body">
			<density>1</density>
		</material>
		<material id="3" name="Material03" type="rigid body">
			<density>1</density>
		</material>
		<material id="4" name="Material04" type="rigid body">
			<density>1</density>
		</material>
		<material id="5" name="Material05" type="rigid body">
			<density>1</density>
		</material>
	</Material>
	<Geometry>
		<Nodes>
			<node id="1">-3.5355338e-001,-3.5355338e-001, 1.1000000e+000</node>
			<node id="2">-3.5355338e-001,-2.3570226e-001, 1.1000000e+000</node>
			<node id="3">-3.5355338e-001,-1.1785113e-001, 1.1000000e+000</node>
			<node id="4">-3.5355338e-001, 0.0000000e+000, 1.1000000e+000</node>
			<node id="5">-3.5355338e-001, 1.1785113e-001, 1.1000000e+000</node>
			<node id="6">-3.5355338e-001, 2.3570226e-001, 1.1000000e+000</node>
			<node id="7">-3.5355338e-001, 3.5355338e-001, 1.1000000e+000</node>
			<node id="8">-2.3570226e-001,-3.5355338e-001, 1.1000000e+000</node>
			<node id="9">-2.3570226e-001,-2.3570226e-001, 1.1000000e+000</node>
			<node id="10">-2.3570226e-001,-1.1785113e-001, 1.1000000e+000</node>
			<node id="11">-2.3570226e-001, 0.0000000e+000, 1.1000000e+000</node>
			<node id="12">-2.3570226e-001, 1.1785113e-001, 1.1000000e+000</node>
			<node id="13">-2.3570226e-001, 2.3570226e-001, 1.1000000e+000</node>
			<node id="14">-2.3570226e-001, 3.5355338e-001, 1.1000000e+000</node>
			<node id="15">-1.1785113e-001,-3.5355338e-001, 1.1000000e+000</node>
			<node id="16">-1.1785113e-001,-2.3570226e-001, 1.1000000e+000</node>
			<node id="17">-1.1785113e-001,-1.1785113e-001, 1.1000000e+000</node>
			<node id="18">-1.1785113e-001, 0.0000000e+000, 1.1000000e+000</node>
			<node id="19">-1.1785113e-001, 1.1785113e-001, 1.1000000e+000</node>
			<node id="20">-1.1785113e-001, 2.3570226e-001, 1.1000000e+000</node>
<!-- ... 3277 like lines cut -->
		</Nodes>
		<Elements>
			<hex8 id="1" mat="2">     1,     8,     9,     2,   194,   201,   202,   195</hex8>
			<hex8 id="2" mat="2">     2,     9,    10,     3,   195,   202,   203,   196</hex8>
			<hex8 id="3" mat="2">     3,    10,    11,     4,   196,   203,   204,   197</hex8>
			<hex8 id="4" mat="2">     4,    11,    12,     5,   197,   204,   205,   198</hex8>
			<hex8 id="5" mat="2">     5,    12,    13,     6,   198,   205,   206,   199</hex8>
			<hex8 id="6" mat="2">     6,    13,    14,     7,   199,   206,   207,   200</hex8>
			<hex8 id="7" mat="2">     8,    15,    16,     9,   201,   208,   209,   202</hex8>
			<hex8 id="8" mat="2">     9,    16,    17,    10,   202,   209,   210,   203</hex8>
			<hex8 id="9" mat="2">    10,    17,    18,    11,   203,   210,   211,   204</hex8>
			<hex8 id="10" mat="2">    11,    18,    19,    12,   204,   211,   212,   205</hex8>
			<hex8 id="11" mat="2">    12,    19,    20,    13,   205,   212,   213,   206</hex8>
			<hex8 id="12" mat="2">    13,    20,    21,    14,   206,   213,   214,   207</hex8>
			<hex8 id="13" mat="2">    15,    22,    23,    16,   208,   215,   216,   209</hex8>
			<hex8 id="14" mat="2">    16,    23,    24,    17,   209,   216,   217,   210</hex8>
			<hex8 id="15" mat="2">    17,    24,    25,    18,   210,   217,   218,   211</hex8>
			<hex8 id="16" mat="2">    18,    25,    26,    19,   211,   218,   219,   212</hex8>
			<hex8 id="17" mat="2">    19,    26,    27,    20,   212,   219,   220,   213</hex8>
			<hex8 id="18" mat="2">    20,    27,    28,    21,   213,   220,   221,   214</hex8>
			<hex8 id="19" mat="2">    22,    29,    30,    23,   215,   222,   223,   216</hex8>
			<hex8 id="20" mat="2">    23,    30,    31,    24,   216,   223,   224,   217</hex8>
<!-- ... 2322 like lines cut -->
		</Elements>
	</Geometry>
	<Boundary>
		<contact type="rigid">
			<node id="3105" rb="2"></node>
			<node id="3106" rb="2"></node>
			<node id="3107" rb="2"></node>
			<node id="3108" rb="2"></node>
			<node id="3109" rb="2"></node>
			<node id="3110" rb="2"></node>
			<node id="3111" rb="2"></node>
			<node id="3112" rb="2"></node>
			<node id="3113" rb="2"></node>
			<node id="3114" rb="2"></node>
			<node id="3115" rb="2"></node>
			<node id="3116" rb="2"></node>
			<node id="3117" rb="2"></node>
			<node id="3118" rb="2"></node>
			<node id="3119" rb="2"></node>
			<node id="3120" rb="2"></node>
			<node id="3121" rb="2"></node>
			<node id="3122" rb="2"></node>
			<node id="3123" rb="2"></node>
			<node id="3124" rb="2"></node>
<!-- ... 173 like lines cut -->
		</contact>
		<contact type="rigid">
			<node id="1175" rb="3"></node>
			<node id="1176" rb="3"></node>
			<node id="1177" rb="3"></node>
			<node id="1178" rb="3"></node>
			<node id="1179" rb="3"></node>
			<node id="1180" rb="3"></node>
			<node id="1181" rb="3"></node>
			<node id="1182" rb="3"></node>
			<node id="1183" rb="3"></node>
			<node id="1184" rb="3"></node>
			<node id="1185" rb="3"></node>
			<node id="1186" rb="3"></node>
			<node id="1187" rb="3"></node>
			<node id="1188" rb="3"></node>
			<node id="1189" rb="3"></node>
			<node id="1190" rb="3"></node>
			<node id="1191" rb="3"></node>
			<node id="1192" rb="3"></node>
			<node id="1193" rb="3"></node>
			<node id="1194" rb="3"></node>
<!-- ... 173 like lines cut -->
		</contact>
		<contact type="rigid joint">
			<tolerance>0.01</tolerance>
			<penalty>100</penalty>
			<body_a>4</body_a>
			<body_b>5</body_b>
			<joint>0.45,0.06,-0.95</joint>
		</contact>
		<contact type="rigid joint">
			<tolerance>0.01</tolerance>
			<penalty>100</penalty>
			<body_a>3</body_a>
			<body_b>4</body_b>
			<joint>0,0,-0.5</joint>
		</contact>
	</Boundary>
	<Constraints>
		<rigid_body mat="2">
			<trans_x type="fixed"></trans_x>
			<trans_y type="fixed"></trans_y>
			<trans_z type="fixed"></trans_z>
			<rot_x type="fixed"></rot_x>
			<rot_y type="fixed"></rot_y>
			<rot_z type="fixed"></rot_z>
		</rigid_body>
		<rigid_body mat="3">
			<trans_x type="fixed"></trans_x>
			<trans_y type="fixed"></trans_y>
			<rot_x type="fixed"></rot_x>
			<rot_y type="fixed"></rot_y>
			<rot_z type="fixed"></rot_z>
		</rigid_body>
		<rigid_body mat="4">
			<trans_y type="fixed"></trans_y>
			<rot_x type="fixed"></rot_x>
			<rot_z type="fixed"></rot_z>
		</rigid_body>
		<rigid_body mat="5">
			<trans_x type="fixed"></trans_x>
			<trans_y type="fixed"></trans_y>
			<trans_z type="fixed"></trans_z>
			<rot_x type="fixed"></rot_x>
			<rot_y type="prescribed" lc="1">1</rot_y>
			<rot_z type="fixed"></rot_z>
		</rigid_body>
	</Constraints>
	<LoadData>
		<loadcurve id="1">
			<loadpoint>0,0</loadpoint>
			<loadpoint>62,6.2</loadpoint>
		</loadcurve>
	</LoadData>
	<Output>
		<plotfile type="febio"></plotfile>
		<logfile>
			<element_data data="sz">1154</element_data>
		</logfile>
	</Output>
</febio_spec>
