<?xml version="1.0" encoding="ISO-8859-1"?>
<!--
Problem Description:
	Two rigid bars at 90 degrees to each other are connected by a rigid joint where they
	cross and by rigid contact to a Neo-Hookean material at their free ends.  The bar
	lying in the y-direction is also connected by a rigid joint to a disk that is
	constrained in x,y,z.  The bar lying in the x-direction has a prescribed displacement
	of 0.1 at time t=1.

Main Features:
	Rigid Joints
	Rigid Contact
Secondary Features:
	
Materials:
	Neo-Hooken
	Rigid Bodies
Degrees of Freedom: 136
Results:
	Steps Completed: 13
	Equilibrium Iterations: 137
	Right Hand Evaluations: 240
	Siffness Reformations: 26
	Other:
		The maximum effective strain in the Neo-Hookean material is 0.0105 units at
		time t=1.
Comments:
	
-->
<febio_spec version="1.2">
	<Control>
		<title>Rigid Joints</title>
		<time_steps>10</time_steps>
		<step_size>0.1</step_size>
		<max_refs>15</max_refs>
		<max_ups>10</max_ups>
		<dtol>0.001</dtol>
		<etol>0.01</etol>
		<rtol>0</rtol>
		<lstol>0.9</lstol>
		<time_stepper>
			<dtmin>0.01</dtmin>
			<dtmax>0.1</dtmax>
			<max_retries>15</max_retries>
			<opt_iter>10</opt_iter>
		</time_stepper>
	</Control>
	<Material>
		<material id="1" name="Material 1" type="neo-Hookean">
			<E>1</E>
			<v>0</v>
		</material>
		<material id="2" name="Material 2" type="rigid body">
			<density>1</density>
		</material>
		<material id="3" name="Material 3" type="rigid body">
			<density>1</density>
		</material>
		<material id="4" name="Material 4" type="rigid body">
			<density>1</density>
		</material>
	</Material>
	<Geometry>
		<Nodes>
			<node id="1">-3.5355338e-001,-3.5355338e-001, 0.0000000e+000</node>
			<node id="2">-3.5355338e-001,-2.3570226e-001, 0.0000000e+000</node>
			<node id="3">-3.5355338e-001,-1.1785113e-001, 0.0000000e+000</node>
			<node id="4">-3.5355338e-001, 0.0000000e+000, 0.0000000e+000</node>
			<node id="5">-3.5355338e-001, 1.1785113e-001, 0.0000000e+000</node>
			<node id="6">-3.5355338e-001, 2.3570226e-001, 0.0000000e+000</node>
			<node id="7">-3.5355338e-001, 3.5355338e-001, 0.0000000e+000</node>
			<node id="8">-2.3570226e-001,-3.5355338e-001, 0.0000000e+000</node>
			<node id="9">-2.3570226e-001,-2.3570226e-001, 0.0000000e+000</node>
			<node id="10">-2.3570226e-001,-1.1785113e-001, 0.0000000e+000</node>
			<node id="11">-2.3570226e-001, 0.0000000e+000, 0.0000000e+000</node>
			<node id="12">-2.3570226e-001, 1.1785113e-001, 0.0000000e+000</node>
			<node id="13">-2.3570226e-001, 2.3570226e-001, 0.0000000e+000</node>
			<node id="14">-2.3570226e-001, 3.5355338e-001, 0.0000000e+000</node>
			<node id="15">-1.1785113e-001,-3.5355338e-001, 0.0000000e+000</node>
			<node id="16">-1.1785113e-001,-2.3570226e-001, 0.0000000e+000</node>
			<node id="17">-1.1785113e-001,-1.1785113e-001, 0.0000000e+000</node>
			<node id="18">-1.1785113e-001, 0.0000000e+000, 0.0000000e+000</node>
			<node id="19">-1.1785113e-001, 1.1785113e-001, 0.0000000e+000</node>
			<node id="20">-1.1785113e-001, 2.3570226e-001, 0.0000000e+000</node>
<!-- ... 434 like lines cut -->
		</Nodes>
		<Elements>
			<hex8 id="1" mat="2">     1,     8,     9,     2,   194,   201,   202,   195</hex8>
			<hex8 id="2" mat="2">     2,     9,    10,     3,   195,   202,   203,   196</hex8>
			<hex8 id="3" mat="2">     3,    10,    11,     4,   196,   203,   204,   197</hex8>
			<hex8 id="4" mat="2">     4,    11,    12,     5,   197,   204,   205,   198</hex8>
			<hex8 id="5" mat="2">     5,    12,    13,     6,   198,   205,   206,   199</hex8>
			<hex8 id="6" mat="2">     6,    13,    14,     7,   199,   206,   207,   200</hex8>
			<hex8 id="7" mat="2">     8,    15,    16,     9,   201,   208,   209,   202</hex8>
			<hex8 id="8" mat="2">     9,    16,    17,    10,   202,   209,   210,   203</hex8>
			<hex8 id="9" mat="2">    10,    17,    18,    11,   203,   210,   211,   204</hex8>
			<hex8 id="10" mat="2">    11,    18,    19,    12,   204,   211,   212,   205</hex8>
			<hex8 id="11" mat="2">    12,    19,    20,    13,   205,   212,   213,   206</hex8>
			<hex8 id="12" mat="2">    13,    20,    21,    14,   206,   213,   214,   207</hex8>
			<hex8 id="13" mat="2">    15,    22,    23,    16,   208,   215,   216,   209</hex8>
			<hex8 id="14" mat="2">    16,    23,    24,    17,   209,   216,   217,   210</hex8>
			<hex8 id="15" mat="2">    17,    24,    25,    18,   210,   217,   218,   211</hex8>
			<hex8 id="16" mat="2">    18,    25,    26,    19,   211,   218,   219,   212</hex8>
			<hex8 id="17" mat="2">    19,    26,    27,    20,   212,   219,   220,   213</hex8>
			<hex8 id="18" mat="2">    20,    27,    28,    21,   213,   220,   221,   214</hex8>
			<hex8 id="19" mat="2">    22,    29,    30,    23,   215,   222,   223,   216</hex8>
			<hex8 id="20" mat="2">    23,    30,    31,    24,   216,   223,   224,   217</hex8>
<!-- ... 174 like lines cut -->
		</Elements>
	</Geometry>
	<Boundary>
		<contact type="rigid joint">
			<tolerance>0.1</tolerance>
			<penalty>1</penalty>
			<body_a>2</body_a>
			<body_b>3</body_b>
			<joint>0,0,0.1</joint>
		</contact>
		<contact type="rigid joint">
			<tolerance>0.1</tolerance>
			<penalty>1</penalty>
			<body_a>3</body_a>
			<body_b>4</body_b>
			<joint>0,-4.3,0.1</joint>
		</contact>
		<contact type="rigid">
			<node id="403" rb="3"></node>
			<node id="404" rb="3"></node>
			<node id="405" rb="3"></node>
			<node id="406" rb="3"></node>
		</contact>
		<contact type="rigid">
			<node id="451" rb="4"></node>
			<node id="452" rb="4"></node>
			<node id="453" rb="4"></node>
			<node id="454" rb="4"></node>
		</contact>
	</Boundary>
	<Constraints>
		<rigid_body mat="2">
			<trans_x type="fixed"></trans_x>
			<trans_y type="fixed"></trans_y>
			<trans_z type="fixed"></trans_z>
			<rot_x type="fixed"></rot_x>
			<rot_y type="fixed"></rot_y>
			<rot_z type="fixed"></rot_z>
		</rigid_body>
		<rigid_body mat="3">
			<trans_z type="fixed"></trans_z>
			<rot_x type="fixed"></rot_x>
			<rot_y type="fixed"></rot_y>
		</rigid_body>
		<rigid_body mat="4">
			<trans_x type="prescribed" lc="1">1</trans_x>
			<trans_y type="fixed"></trans_y>
			<trans_z type="fixed"></trans_z>
			<rot_x type="fixed"></rot_x>
			<rot_y type="fixed"></rot_y>
			<rot_z type="fixed"></rot_z>
		</rigid_body>
	</Constraints>
	<LoadData>
		<loadcurve id="1">
			<loadpoint>0,0</loadpoint>
			<loadpoint>1,0.1</loadpoint>
		</loadcurve>
	</LoadData>
	<Output>
		<plotfile type="febio"></plotfile>
		<logfile>
			<element_data data="Ez">192</element_data>
		</logfile>
	</Output>
</febio_spec>
