<?xml version="1.0" encoding="ISO-8859-1"?>
<!--
Problem Description:
	Knee Model.  The femur and patella are free to rotate about the y-axis.  The former
	has a prescribed rotatioon of 1.57 radians at time t=1.  Ligaments are attached
	between the femur and the tibia; the front one going over the patella.
Main Features:
	Rigid Bodies
Secondary Features:
	Prescribed rotation
Materials:
	Mooney-Rivlin
	Rigid Bodies
Degrees of Freedom: 662
Results:
	Steps Completed: 8
	Equilibrium Iterations: 81
	Right Hand Evaluations: 90
	Siffness Reformations: 12
	Other:
		The top of the patella has a z-displacement of 0.526 at time t=1.
Comments:
	
-->
<febio_spec version="1.2">
	<Control>
		<title>Knee Model</title>
		<time_steps>10</time_steps>
		<step_size>0.1</step_size>
		<max_refs>15</max_refs>
		<max_ups>10</max_ups>
		<dtol>0.001</dtol>
		<etol>0.01</etol>
		<rtol>1e+010</rtol>
		<lstol>0.9</lstol>
		<time_stepper>
			<dtmin>0.0333333</dtmin>
			<dtmax>0.3</dtmax>
			<max_retries>5</max_retries>
			<opt_iter>11</opt_iter>
		</time_stepper>
	</Control>
	<Material>
		<material id="1" name="Ligament (Mooney-Rivlin)" type="Mooney-Rivlin">
			<c1>1000</c1>
			<c2>0</c2>
			<k>19333.3</k>
		</material>
		<material id="2" name="Femur (Rigid Body)" type="rigid body">
			<density>1</density>
			<center_of_mass>0,0,0</center_of_mass>
		</material>
		<material id="3" name="Tibia (Rigid Body)" type="rigid body">
			<density>1</density>
		</material>
		<material id="4" name="Patella (Rigid Body)" type="rigid body">
			<density>1</density>
			<center_of_mass>0,0,0</center_of_mass>
		</material>
	</Material>
	<Geometry>
		<Nodes>
			<node id="1">-1.0500000e+000,-2.0000000e-001,-3.0000001e-001</node>
			<node id="2">-1.0500000e+000,-2.0000000e-001,-1.6666667e-001</node>
			<node id="3">-1.0500000e+000,-2.0000000e-001,-3.3333343e-002</node>
			<node id="4">-1.0500000e+000,-2.0000000e-001, 9.9999994e-002</node>
			<node id="5">-1.0500000e+000,-6.6666670e-002,-3.0000001e-001</node>
			<node id="6">-1.0500000e+000,-6.6666670e-002,-1.6666667e-001</node>
			<node id="7">-1.0500000e+000,-6.6666670e-002,-3.3333343e-002</node>
			<node id="8">-1.0500000e+000,-6.6666670e-002, 9.9999994e-002</node>
			<node id="9">-1.0500000e+000, 6.6666670e-002,-3.0000001e-001</node>
			<node id="10">-1.0500000e+000, 6.6666670e-002,-1.6666667e-001</node>
			<node id="11">-1.0500000e+000, 6.6666670e-002,-3.3333343e-002</node>
			<node id="12">-1.0500000e+000, 6.6666670e-002, 9.9999994e-002</node>
			<node id="13">-1.0500000e+000, 2.0000000e-001,-3.0000001e-001</node>
			<node id="14">-1.0500000e+000, 2.0000000e-001,-1.6666667e-001</node>
			<node id="15">-1.0500000e+000, 2.0000000e-001,-3.3333343e-002</node>
			<node id="16">-1.0500000e+000, 2.0000000e-001, 9.9999994e-002</node>
			<node id="17">-9.4999999e-001,-2.0000000e-001,-3.0000001e-001</node>
			<node id="18">-9.4999999e-001,-2.0000000e-001,-1.6666667e-001</node>
			<node id="19">-9.4999999e-001,-2.0000000e-001,-3.3333343e-002</node>
			<node id="20">-9.4999999e-001,-2.0000000e-001, 9.9999994e-002</node>
<!-- ... 994 like lines cut -->
		</Nodes>
		<Elements>
			<hex8 id="1" mat="4">     1,    17,    21,     5,     2,    18,    22,     6</hex8>
			<hex8 id="2" mat="4">     2,    18,    22,     6,     3,    19,    23,     7</hex8>
			<hex8 id="3" mat="4">     3,    19,    23,     7,     4,    20,    24,     8</hex8>
			<hex8 id="4" mat="4">     5,    21,    25,     9,     6,    22,    26,    10</hex8>
			<hex8 id="5" mat="4">     6,    22,    26,    10,     7,    23,    27,    11</hex8>
			<hex8 id="6" mat="4">     7,    23,    27,    11,     8,    24,    28,    12</hex8>
			<hex8 id="7" mat="4">     9,    25,    29,    13,    10,    26,    30,    14</hex8>
			<hex8 id="8" mat="4">    10,    26,    30,    14,    11,    27,    31,    15</hex8>
			<hex8 id="9" mat="4">    11,    27,    31,    15,    12,    28,    32,    16</hex8>
			<hex8 id="10" mat="3">    33,    69,    75,    39,    34,    70,    76,    40</hex8>
			<hex8 id="11" mat="3">    34,    70,    76,    40,    35,    71,    77,    41</hex8>
			<hex8 id="12" mat="3">    35,    71,    77,    41,    36,    72,    78,    42</hex8>
			<hex8 id="13" mat="3">    36,    72,    78,    42,    37,    73,    79,    43</hex8>
			<hex8 id="14" mat="3">    37,    73,    79,    43,    38,    74,    80,    44</hex8>
			<hex8 id="15" mat="3">    39,    75,    81,    45,    40,    76,    82,    46</hex8>
			<hex8 id="16" mat="3">    40,    76,    82,    46,    41,    77,    83,    47</hex8>
			<hex8 id="17" mat="3">    41,    77,    83,    47,    42,    78,    84,    48</hex8>
			<hex8 id="18" mat="3">    42,    78,    84,    48,    43,    79,    85,    49</hex8>
			<hex8 id="19" mat="3">    43,    79,    85,    49,    44,    80,    86,    50</hex8>
			<hex8 id="20" mat="3">    45,    81,    87,    51,    46,    82,    88,    52</hex8>
<!-- ... 554 like lines cut -->
		</Elements>
	</Geometry>
	<Constraints>
		<rigid_body mat="2">
			<trans_x type="fixed"></trans_x>
			<trans_y type="fixed"></trans_y>
			<trans_z type="fixed"></trans_z>
			<rot_x type="fixed"></rot_x>
			<rot_y type="prescribed" lc="1">1</rot_y>
			<rot_z type="fixed"></rot_z>
		</rigid_body>
		<rigid_body mat="3">
			<trans_x type="fixed"></trans_x>
			<trans_y type="fixed"></trans_y>
			<trans_z type="fixed"></trans_z>
			<rot_x type="fixed"></rot_x>
			<rot_y type="fixed"></rot_y>
			<rot_z type="fixed"></rot_z>
		</rigid_body>
		<rigid_body mat="4">
			<trans_x type="fixed"></trans_x>
			<trans_y type="fixed"></trans_y>
			<trans_z type="fixed"></trans_z>
			<rot_x type="fixed"></rot_x>
			<rot_z type="fixed"></rot_z>
		</rigid_body>
	</Constraints>
	<LoadData>
		<loadcurve id="1">
			<loadpoint>0,0</loadpoint>
			<loadpoint>1,1.57</loadpoint>
		</loadcurve>
	</LoadData>
	<Output>
		<plotfile type="febio"></plotfile>
		<logfile>
			<element_data data="Ez">561</element_data>
		</logfile>
	</Output>
</febio_spec>
