<?xml version="1.0" encoding="ISO-8859-1"?>
<!--
Problem Description:
	A cylinder is constrained in x,y,z on its top end and attached  by rigid
	contact on its bottom end to a rigid spherical shell with z-dislacement of
	-1 units at time t=1.
Main Features:
	Shells
	Rigid Contact
Secondary Features:
	
Materials:
	Neo-Hookean
	Rigid Bodies
Degrees of Freedom: 5074
Results:
	Steps Completed: 10
	Equilibrium Iterations: 20
	Right Hand Evaluations: 30
	Siffness Reformations: 10
	Other:
		The maximum x-displacement of the cylinder is -8.33e-3 units at time t=1.
Comments:
	
-->
<febio_spec version="1.2">
	<Control>
		<title>Cylinder and Spherical Rigid Shell</title>
		<time_steps>10</time_steps>
		<step_size>0.1</step_size>
		<max_refs>15</max_refs>
		<max_ups>10</max_ups>
		<dtol>0.001</dtol>
		<etol>0.01</etol>
		<rtol>0</rtol>
		<lstol>0.9</lstol>
		<time_stepper>
			<dtmin>0.01</dtmin>
			<dtmax>0.1</dtmax>
			<max_retries>5</max_retries>
			<opt_iter>10</opt_iter>
		</time_stepper>
		<plot_level>PLOT_MAJOR_ITRS</plot_level>
	</Control>
	<Material>
		<material id="1" name="Material 1" type="neo-Hookean">
			<E>1</E>
			<v>0.45</v>
		</material>
		<material id="2" name="Material 2" type="rigid body">
			<density>1</density>
			<center_of_mass>0,0,0</center_of_mass>
		</material>
	</Material>
	<Geometry>
		<Nodes>
			<node id="1">-2.1213203e-001,-2.1213203e-001, 0.0000000e+000</node>
			<node id="2">-2.1213203e-001,-1.0606602e-001, 0.0000000e+000</node>
			<node id="3">-2.1213203e-001, 2.3299794e-009, 0.0000000e+000</node>
			<node id="4">-2.1213203e-001, 1.0606602e-001, 0.0000000e+000</node>
			<node id="5">-2.1213203e-001, 2.1213204e-001, 0.0000000e+000</node>
			<node id="6">-1.0606602e-001,-2.1213203e-001, 0.0000000e+000</node>
			<node id="7">-1.0606602e-001,-1.0606602e-001, 0.0000000e+000</node>
			<node id="8">-1.0606602e-001, 2.3299794e-009, 0.0000000e+000</node>
			<node id="9">-1.0606602e-001, 1.0606602e-001, 0.0000000e+000</node>
			<node id="10">-1.0606602e-001, 2.1213204e-001, 0.0000000e+000</node>
			<node id="11"> 2.3299794e-009,-2.1213203e-001, 0.0000000e+000</node>
			<node id="12"> 2.3299794e-009,-1.0606602e-001, 0.0000000e+000</node>
			<node id="13"> 2.3299794e-009, 2.3299794e-009, 0.0000000e+000</node>
			<node id="14"> 2.3299794e-009, 1.0606602e-001, 0.0000000e+000</node>
			<node id="15"> 2.3299794e-009, 2.1213204e-001, 0.0000000e+000</node>
			<node id="16"> 1.0606602e-001,-2.1213203e-001, 0.0000000e+000</node>
			<node id="17"> 1.0606602e-001,-1.0606602e-001, 0.0000000e+000</node>
			<node id="18"> 1.0606602e-001, 2.3299794e-009, 0.0000000e+000</node>
			<node id="19"> 1.0606602e-001, 1.0606602e-001, 0.0000000e+000</node>
			<node id="20"> 1.0606602e-001, 2.1213204e-001, 0.0000000e+000</node>
<!-- ... 2067 like lines cut -->
		</Nodes>
		<Elements>
			<hex8 id="1" mat="1">     1,     6,     7,     2,    90,    95,    96,    91</hex8>
			<hex8 id="2" mat="1">     2,     7,     8,     3,    91,    96,    97,    92</hex8>
			<hex8 id="3" mat="1">     3,     8,     9,     4,    92,    97,    98,    93</hex8>
			<hex8 id="4" mat="1">     4,     9,    10,     5,    93,    98,    99,    94</hex8>
			<hex8 id="5" mat="1">     6,    11,    12,     7,    95,   100,   101,    96</hex8>
			<hex8 id="6" mat="1">     7,    12,    13,     8,    96,   101,   102,    97</hex8>
			<hex8 id="7" mat="1">     8,    13,    14,     9,    97,   102,   103,    98</hex8>
			<hex8 id="8" mat="1">     9,    14,    15,    10,    98,   103,   104,    99</hex8>
			<hex8 id="9" mat="1">    11,    16,    17,    12,   100,   105,   106,   101</hex8>
			<hex8 id="10" mat="1">    12,    17,    18,    13,   101,   106,   107,   102</hex8>
			<hex8 id="11" mat="1">    13,    18,    19,    14,   102,   107,   108,   103</hex8>
			<hex8 id="12" mat="1">    14,    19,    20,    15,   103,   108,   109,   104</hex8>
			<hex8 id="13" mat="1">    16,    21,    22,    17,   105,   110,   111,   106</hex8>
			<hex8 id="14" mat="1">    17,    22,    23,    18,   106,   111,   112,   107</hex8>
			<hex8 id="15" mat="1">    18,    23,    24,    19,   107,   112,   113,   108</hex8>
			<hex8 id="16" mat="1">    19,    24,    25,    20,   108,   113,   114,   109</hex8>
			<hex8 id="17" mat="1">     5,    26,    30,     4,    94,   115,   119,    93</hex8>
			<hex8 id="18" mat="1">    26,    27,    31,    30,   115,   116,   120,   119</hex8>
			<hex8 id="19" mat="1">    27,    28,    32,    31,   116,   117,   121,   120</hex8>
			<hex8 id="20" mat="1">    28,    29,    33,    32,   117,   118,   122,   121</hex8>
<!-- ... 1580 like lines cut -->
			<quad4 id="1601" mat="2">  1877,  1870,  1871,  1878</quad4>
			<quad4 id="1602" mat="2">  1870,  1919,  1920,  1871</quad4>
			<quad4 id="1603" mat="2">  1877,  1926,  1919,  1870</quad4>
			<quad4 id="1604" mat="2">  1878,  1871,  1872,  1879</quad4>
			<quad4 id="1605" mat="2">  1871,  1920,  1921,  1872</quad4>
			<quad4 id="1606" mat="2">  1879,  1872,  1873,  1880</quad4>
			<quad4 id="1607" mat="2">  1872,  1921,  1922,  1873</quad4>
			<quad4 id="1608" mat="2">  1880,  1873,  1874,  1881</quad4>
			<quad4 id="1609" mat="2">  1873,  1922,  1923,  1874</quad4>
			<quad4 id="1610" mat="2">  1881,  1874,  1875,  1882</quad4>
			<quad4 id="1611" mat="2">  1874,  1923,  1924,  1875</quad4>
			<quad4 id="1612" mat="2">  1882,  1875,  1876,  1883</quad4>
			<quad4 id="1613" mat="2">  1875,  1924,  1925,  1876</quad4>
			<quad4 id="1614" mat="2">  1876,  1925,  1927,  1883</quad4>
			<quad4 id="1615" mat="2">  1884,  1877,  1878,  1885</quad4>
			<quad4 id="1616" mat="2">  1884,  1928,  1926,  1877</quad4>
			<quad4 id="1617" mat="2">  1885,  1878,  1879,  1886</quad4>
			<quad4 id="1618" mat="2">  1886,  1879,  1880,  1887</quad4>
			<quad4 id="1619" mat="2">  1887,  1880,  1881,  1888</quad4>
			<quad4 id="1620" mat="2">  1888,  1881,  1882,  1889</quad4>
<!-- ... 196 like lines cut -->
		</Elements>
	</Geometry>
	<Boundary>
		<fix>
			<node id="1781" bc="xyz"></node>
			<node id="1782" bc="xyz"></node>
			<node id="1783" bc="xyz"></node>
			<node id="1784" bc="xyz"></node>
			<node id="1785" bc="xyz"></node>
			<node id="1786" bc="xyz"></node>
			<node id="1787" bc="xyz"></node>
			<node id="1788" bc="xyz"></node>
			<node id="1789" bc="xyz"></node>
			<node id="1790" bc="xyz"></node>
			<node id="1791" bc="xyz"></node>
			<node id="1792" bc="xyz"></node>
			<node id="1793" bc="xyz"></node>
			<node id="1794" bc="xyz"></node>
			<node id="1795" bc="xyz"></node>
			<node id="1796" bc="xyz"></node>
			<node id="1797" bc="xyz"></node>
			<node id="1798" bc="xyz"></node>
			<node id="1799" bc="xyz"></node>
			<node id="1800" bc="xyz"></node>
<!-- ... 69 like lines cut -->
		</fix>
		<contact type="rigid">
			<node id="1" rb="2"></node>
			<node id="2" rb="2"></node>
			<node id="3" rb="2"></node>
			<node id="4" rb="2"></node>
			<node id="5" rb="2"></node>
			<node id="6" rb="2"></node>
			<node id="7" rb="2"></node>
			<node id="8" rb="2"></node>
			<node id="9" rb="2"></node>
			<node id="10" rb="2"></node>
			<node id="11" rb="2"></node>
			<node id="12" rb="2"></node>
			<node id="13" rb="2"></node>
			<node id="14" rb="2"></node>
			<node id="15" rb="2"></node>
			<node id="16" rb="2"></node>
			<node id="17" rb="2"></node>
			<node id="18" rb="2"></node>
			<node id="19" rb="2"></node>
			<node id="20" rb="2"></node>
<!-- ... 69 like lines cut -->
		</contact>
	</Boundary>
	<Constraints>
		<rigid_body mat="2">
			<trans_x type="fixed"></trans_x>
			<trans_y type="fixed"></trans_y>
			<trans_z type="prescribed" lc="1">1</trans_z>
			<rot_x type="fixed"></rot_x>
			<rot_y type="fixed"></rot_y>
			<rot_z type="fixed"></rot_z>
		</rigid_body>
	</Constraints>
	<LoadData>
		<loadcurve id="1">
			<loadpoint>0,0</loadpoint>
			<loadpoint>1,-1</loadpoint>
		</loadcurve>
	</LoadData>
	<Output>
		<plotfile type="febio"></plotfile>
        <logfile>
           <element_data data="sx">1587</element_data>
        </logfile>
	</Output>
</febio_spec>
