<?xml version="1.0" encoding="ISO-8859-1"?>
<!--
Problem Description:
	A 10x10 element shell plate is constrained in x,y,z on the edges with a z-force
	of 0 units at time t=0 to 0.0005 units at time t=1 applied to the center node.
Main Features:
	Shells
Secondary Features:
	Nodal Force
Materials:
	Neo-Hookean
Degrees of Freedom: 522
Results:
	Steps Completed: 10
	Equilibrium Iterations: 50
	Right Hand Evaluations: 62
	Siffness Reformations: 10
	Other:
		The center node has a z-displacement of 0.261 at time t=1.
Comments:
	
-->
<febio_spec version="1.2">
	<Control>
		<title>Shell with Force on Center Node</title>
		<time_steps>10</time_steps>
		<step_size>0.1</step_size>
		<max_refs>15</max_refs>
		<max_ups>10</max_ups>
		<dtol>0.001</dtol>
		<etol>0.01</etol>
		<rtol>0</rtol>
		<lstol>0.9</lstol>
		<time_stepper>
			<dtmin>0.01</dtmin>
			<dtmax>0.1</dtmax>
			<max_retries>5</max_retries>
			<opt_iter>10</opt_iter>
		</time_stepper>
	</Control>
	<Material>
		<material id="1" name="Material 3" type="neo-Hookean">
			<E>1</E>
			<v>0</v>
		</material>
	</Material>
	<Geometry>
		<Nodes>
			<node id="1">-5.0000000e-001,-5.0000000e-001, 0.0000000e+000</node>
			<node id="2">-5.0000000e-001,-4.0000000e-001, 0.0000000e+000</node>
			<node id="3">-5.0000000e-001,-3.0000000e-001, 0.0000000e+000</node>
			<node id="4">-5.0000000e-001,-2.0000000e-001, 0.0000000e+000</node>
			<node id="5">-5.0000000e-001,-1.0000000e-001, 0.0000000e+000</node>
			<node id="6">-5.0000000e-001, 0.0000000e+000, 0.0000000e+000</node>
			<node id="7">-5.0000000e-001, 1.0000000e-001, 0.0000000e+000</node>
			<node id="8">-5.0000000e-001, 2.0000000e-001, 0.0000000e+000</node>
			<node id="9">-5.0000000e-001, 3.0000000e-001, 0.0000000e+000</node>
			<node id="10">-5.0000000e-001, 4.0000000e-001, 0.0000000e+000</node>
			<node id="11">-5.0000000e-001, 5.0000000e-001, 0.0000000e+000</node>
			<node id="12">-4.0000000e-001,-5.0000000e-001, 0.0000000e+000</node>
			<node id="13">-4.0000000e-001,-4.0000000e-001, 0.0000000e+000</node>
			<node id="14">-4.0000000e-001,-3.0000000e-001, 0.0000000e+000</node>
			<node id="15">-4.0000000e-001,-2.0000000e-001, 0.0000000e+000</node>
			<node id="16">-4.0000000e-001,-1.0000000e-001, 0.0000000e+000</node>
			<node id="17">-4.0000000e-001, 0.0000000e+000, 0.0000000e+000</node>
			<node id="18">-4.0000000e-001, 1.0000000e-001, 0.0000000e+000</node>
			<node id="19">-4.0000000e-001, 2.0000000e-001, 0.0000000e+000</node>
			<node id="20">-4.0000000e-001, 3.0000000e-001, 0.0000000e+000</node>
<!-- ... 101 like lines cut -->
		</Nodes>
		<Elements>
			<quad4 id="1" mat="1">     1,    12,    13,     2</quad4>
			<quad4 id="2" mat="1">     2,    13,    14,     3</quad4>
			<quad4 id="3" mat="1">     3,    14,    15,     4</quad4>
			<quad4 id="4" mat="1">     4,    15,    16,     5</quad4>
			<quad4 id="5" mat="1">     5,    16,    17,     6</quad4>
			<quad4 id="6" mat="1">     6,    17,    18,     7</quad4>
			<quad4 id="7" mat="1">     7,    18,    19,     8</quad4>
			<quad4 id="8" mat="1">     8,    19,    20,     9</quad4>
			<quad4 id="9" mat="1">     9,    20,    21,    10</quad4>
			<quad4 id="10" mat="1">    10,    21,    22,    11</quad4>
			<quad4 id="11" mat="1">    12,    23,    24,    13</quad4>
			<quad4 id="12" mat="1">    13,    24,    25,    14</quad4>
			<quad4 id="13" mat="1">    14,    25,    26,    15</quad4>
			<quad4 id="14" mat="1">    15,    26,    27,    16</quad4>
			<quad4 id="15" mat="1">    16,    27,    28,    17</quad4>
			<quad4 id="16" mat="1">    17,    28,    29,    18</quad4>
			<quad4 id="17" mat="1">    18,    29,    30,    19</quad4>
			<quad4 id="18" mat="1">    19,    30,    31,    20</quad4>
			<quad4 id="19" mat="1">    20,    31,    32,    21</quad4>
			<quad4 id="20" mat="1">    21,    32,    33,    22</quad4>
<!-- ... 80 like lines cut -->
		</Elements>
		<ElementData>
			<element id="1">
				<thickness>0.01,0.01,0.01,0.01</thickness>
			</element>
			<element id="2">
				<thickness>0.01,0.01,0.01,0.01</thickness>
			</element>
			<element id="3">
				<thickness>0.01,0.01,0.01,0.01</thickness>
			</element>
			<element id="4">
				<thickness>0.01,0.01,0.01,0.01</thickness>
			</element>
			<element id="5">
				<thickness>0.01,0.01,0.01,0.01</thickness>
			</element>
			<element id="6">
				<thickness>0.01,0.01,0.01,0.01</thickness>
			</element>
			<element id="7">
				<thickness>0.01,0.01,0.01,0.01</thickness>
			</element>
			<element id="8">
				<thickness>0.01,0.01,0.01,0.01</thickness>
			</element>
			<element id="9">
				<thickness>0.01,0.01,0.01,0.01</thickness>
			</element>
			<element id="10">
				<thickness>0.01,0.01,0.01,0.01</thickness>
			</element>
			<element id="11">
				<thickness>0.01,0.01,0.01,0.01</thickness>
			</element>
			<element id="12">
				<thickness>0.01,0.01,0.01,0.01</thickness>
			</element>
			<element id="13">
				<thickness>0.01,0.01,0.01,0.01</thickness>
			</element>
			<element id="14">
				<thickness>0.01,0.01,0.01,0.01</thickness>
			</element>
			<element id="15">
				<thickness>0.01,0.01,0.01,0.01</thickness>
			</element>
			<element id="16">
				<thickness>0.01,0.01,0.01,0.01</thickness>
			</element>
			<element id="17">
				<thickness>0.01,0.01,0.01,0.01</thickness>
			</element>
			<element id="18">
				<thickness>0.01,0.01,0.01,0.01</thickness>
			</element>
			<element id="19">
				<thickness>0.01,0.01,0.01,0.01</thickness>
			</element>
			<element id="20">
				<thickness>0.01,0.01,0.01,0.01</thickness>
			</element>
			<element id="21">
				<thickness>0.01,0.01,0.01,0.01</thickness>
			</element>
			<element id="22">
				<thickness>0.01,0.01,0.01,0.01</thickness>
			</element>
			<element id="23">
				<thickness>0.01,0.01,0.01,0.01</thickness>
			</element>
			<element id="24">
				<thickness>0.01,0.01,0.01,0.01</thickness>
			</element>
			<element id="25">
				<thickness>0.01,0.01,0.01,0.01</thickness>
			</element>
			<element id="26">
				<thickness>0.01,0.01,0.01,0.01</thickness>
			</element>
			<element id="27">
				<thickness>0.01,0.01,0.01,0.01</thickness>
			</element>
			<element id="28">
				<thickness>0.01,0.01,0.01,0.01</thickness>
			</element>
			<element id="29">
				<thickness>0.01,0.01,0.01,0.01</thickness>
			</element>
			<element id="30">
				<thickness>0.01,0.01,0.01,0.01</thickness>
			</element>
			<element id="31">
				<thickness>0.01,0.01,0.01,0.01</thickness>
			</element>
			<element id="32">
				<thickness>0.01,0.01,0.01,0.01</thickness>
			</element>
			<element id="33">
				<thickness>0.01,0.01,0.01,0.01</thickness>
			</element>
			<element id="34">
				<thickness>0.01,0.01,0.01,0.01</thickness>
			</element>
			<element id="35">
				<thickness>0.01,0.01,0.01,0.01</thickness>
			</element>
			<element id="36">
				<thickness>0.01,0.01,0.01,0.01</thickness>
			</element>
			<element id="37">
				<thickness>0.01,0.01,0.01,0.01</thickness>
			</element>
			<element id="38">
				<thickness>0.01,0.01,0.01,0.01</thickness>
			</element>
			<element id="39">
				<thickness>0.01,0.01,0.01,0.01</thickness>
			</element>
			<element id="40">
				<thickness>0.01,0.01,0.01,0.01</thickness>
			</element>
			<element id="41">
				<thickness>0.01,0.01,0.01,0.01</thickness>
			</element>
			<element id="42">
				<thickness>0.01,0.01,0.01,0.01</thickness>
			</element>
			<element id="43">
				<thickness>0.01,0.01,0.01,0.01</thickness>
			</element>
			<element id="44">
				<thickness>0.01,0.01,0.01,0.01</thickness>
			</element>
			<element id="45">
				<thickness>0.01,0.01,0.01,0.01</thickness>
			</element>
			<element id="46">
				<thickness>0.01,0.01,0.01,0.01</thickness>
			</element>
			<element id="47">
				<thickness>0.01,0.01,0.01,0.01</thickness>
			</element>
			<element id="48">
				<thickness>0.01,0.01,0.01,0.01</thickness>
			</element>
			<element id="49">
				<thickness>0.01,0.01,0.01,0.01</thickness>
			</element>
			<element id="50">
				<thickness>0.01,0.01,0.01,0.01</thickness>
			</element>
			<element id="51">
				<thickness>0.01,0.01,0.01,0.01</thickness>
			</element>
			<element id="52">
				<thickness>0.01,0.01,0.01,0.01</thickness>
			</element>
			<element id="53">
				<thickness>0.01,0.01,0.01,0.01</thickness>
			</element>
			<element id="54">
				<thickness>0.01,0.01,0.01,0.01</thickness>
			</element>
			<element id="55">
				<thickness>0.01,0.01,0.01,0.01</thickness>
			</element>
			<element id="56">
				<thickness>0.01,0.01,0.01,0.01</thickness>
			</element>
			<element id="57">
				<thickness>0.01,0.01,0.01,0.01</thickness>
			</element>
			<element id="58">
				<thickness>0.01,0.01,0.01,0.01</thickness>
			</element>
			<element id="59">
				<thickness>0.01,0.01,0.01,0.01</thickness>
			</element>
			<element id="60">
				<thickness>0.01,0.01,0.01,0.01</thickness>
			</element>
			<element id="61">
				<thickness>0.01,0.01,0.01,0.01</thickness>
			</element>
			<element id="62">
				<thickness>0.01,0.01,0.01,0.01</thickness>
			</element>
			<element id="63">
				<thickness>0.01,0.01,0.01,0.01</thickness>
			</element>
			<element id="64">
				<thickness>0.01,0.01,0.01,0.01</thickness>
			</element>
			<element id="65">
				<thickness>0.01,0.01,0.01,0.01</thickness>
			</element>
			<element id="66">
				<thickness>0.01,0.01,0.01,0.01</thickness>
			</element>
			<element id="67">
				<thickness>0.01,0.01,0.01,0.01</thickness>
			</element>
			<element id="68">
				<thickness>0.01,0.01,0.01,0.01</thickness>
			</element>
			<element id="69">
				<thickness>0.01,0.01,0.01,0.01</thickness>
			</element>
			<element id="70">
				<thickness>0.01,0.01,0.01,0.01</thickness>
			</element>
			<element id="71">
				<thickness>0.01,0.01,0.01,0.01</thickness>
			</element>
			<element id="72">
				<thickness>0.01,0.01,0.01,0.01</thickness>
			</element>
			<element id="73">
				<thickness>0.01,0.01,0.01,0.01</thickness>
			</element>
			<element id="74">
				<thickness>0.01,0.01,0.01,0.01</thickness>
			</element>
			<element id="75">
				<thickness>0.01,0.01,0.01,0.01</thickness>
			</element>
			<element id="76">
				<thickness>0.01,0.01,0.01,0.01</thickness>
			</element>
			<element id="77">
				<thickness>0.01,0.01,0.01,0.01</thickness>
			</element>
			<element id="78">
				<thickness>0.01,0.01,0.01,0.01</thickness>
			</element>
			<element id="79">
				<thickness>0.01,0.01,0.01,0.01</thickness>
			</element>
			<element id="80">
				<thickness>0.01,0.01,0.01,0.01</thickness>
			</element>
			<element id="81">
				<thickness>0.01,0.01,0.01,0.01</thickness>
			</element>
			<element id="82">
				<thickness>0.01,0.01,0.01,0.01</thickness>
			</element>
			<element id="83">
				<thickness>0.01,0.01,0.01,0.01</thickness>
			</element>
			<element id="84">
				<thickness>0.01,0.01,0.01,0.01</thickness>
			</element>
			<element id="85">
				<thickness>0.01,0.01,0.01,0.01</thickness>
			</element>
			<element id="86">
				<thickness>0.01,0.01,0.01,0.01</thickness>
			</element>
			<element id="87">
				<thickness>0.01,0.01,0.01,0.01</thickness>
			</element>
			<element id="88">
				<thickness>0.01,0.01,0.01,0.01</thickness>
			</element>
			<element id="89">
				<thickness>0.01,0.01,0.01,0.01</thickness>
			</element>
			<element id="90">
				<thickness>0.01,0.01,0.01,0.01</thickness>
			</element>
			<element id="91">
				<thickness>0.01,0.01,0.01,0.01</thickness>
			</element>
			<element id="92">
				<thickness>0.01,0.01,0.01,0.01</thickness>
			</element>
			<element id="93">
				<thickness>0.01,0.01,0.01,0.01</thickness>
			</element>
			<element id="94">
				<thickness>0.01,0.01,0.01,0.01</thickness>
			</element>
			<element id="95">
				<thickness>0.01,0.01,0.01,0.01</thickness>
			</element>
			<element id="96">
				<thickness>0.01,0.01,0.01,0.01</thickness>
			</element>
			<element id="97">
				<thickness>0.01,0.01,0.01,0.01</thickness>
			</element>
			<element id="98">
				<thickness>0.01,0.01,0.01,0.01</thickness>
			</element>
			<element id="99">
				<thickness>0.01,0.01,0.01,0.01</thickness>
			</element>
			<element id="100">
				<thickness>0.01,0.01,0.01,0.01</thickness>
			</element>
		</ElementData>
	</Geometry>
	<Boundary>
		<fix>
			<node id="1" bc="xyz"></node>
			<node id="1" bc="uvw"></node>
			<node id="2" bc="xyz"></node>
			<node id="2" bc="uvw"></node>
			<node id="3" bc="xyz"></node>
			<node id="3" bc="uvw"></node>
			<node id="4" bc="xyz"></node>
			<node id="4" bc="uvw"></node>
			<node id="5" bc="xyz"></node>
			<node id="5" bc="uvw"></node>
			<node id="6" bc="xyz"></node>
			<node id="6" bc="uvw"></node>
			<node id="7" bc="xyz"></node>
			<node id="7" bc="uvw"></node>
			<node id="8" bc="xyz"></node>
			<node id="8" bc="uvw"></node>
			<node id="9" bc="xyz"></node>
			<node id="9" bc="uvw"></node>
			<node id="10" bc="xyz"></node>
			<node id="10" bc="uvw"></node>
			<node id="11" bc="xyz"></node>
			<node id="11" bc="uvw"></node>
			<node id="12" bc="xyz"></node>
			<node id="12" bc="u"></node>
			<node id="22" bc="xyz"></node>
			<node id="22" bc="u"></node>
			<node id="23" bc="xyz"></node>
			<node id="23" bc="u"></node>
			<node id="33" bc="xyz"></node>
			<node id="33" bc="u"></node>
			<node id="34" bc="xyz"></node>
			<node id="34" bc="u"></node>
			<node id="44" bc="xyz"></node>
			<node id="44" bc="u"></node>
			<node id="45" bc="xyz"></node>
			<node id="45" bc="u"></node>
			<node id="55" bc="xyz"></node>
			<node id="55" bc="u"></node>
			<node id="56" bc="xyz"></node>
			<node id="56" bc="u"></node>
			<node id="66" bc="xyz"></node>
			<node id="66" bc="u"></node>
			<node id="67" bc="xyz"></node>
			<node id="67" bc="u"></node>
			<node id="77" bc="xyz"></node>
			<node id="77" bc="u"></node>
			<node id="78" bc="xyz"></node>
			<node id="78" bc="u"></node>
			<node id="88" bc="xyz"></node>
			<node id="88" bc="u"></node>
			<node id="89" bc="xyz"></node>
			<node id="89" bc="u"></node>
			<node id="99" bc="xyz"></node>
			<node id="99" bc="u"></node>
			<node id="100" bc="xyz"></node>
			<node id="100" bc="u"></node>
			<node id="110" bc="xyz"></node>
			<node id="110" bc="u"></node>
			<node id="111" bc="xyz"></node>
			<node id="111" bc="uvw"></node>
			<node id="112" bc="xyz"></node>
			<node id="112" bc="uvw"></node>
			<node id="113" bc="xyz"></node>
			<node id="113" bc="uvw"></node>
			<node id="114" bc="xyz"></node>
			<node id="114" bc="uvw"></node>
			<node id="115" bc="xyz"></node>
			<node id="115" bc="uvw"></node>
			<node id="116" bc="xyz"></node>
			<node id="116" bc="uvw"></node>
			<node id="117" bc="xyz"></node>
			<node id="117" bc="uvw"></node>
			<node id="118" bc="xyz"></node>
			<node id="118" bc="uvw"></node>
			<node id="119" bc="xyz"></node>
			<node id="119" bc="uvw"></node>
			<node id="120" bc="xyz"></node>
			<node id="120" bc="uvw"></node>
			<node id="121" bc="xyz"></node>
			<node id="121" bc="uvw"></node>
		</fix>
	</Boundary>
	<Loads>
		<force>
			<node id="61" bc="z" lc="1">1</node>
		</force>
	</Loads>
	<LoadData>
		<loadcurve id="1">
			<loadpoint>0,0</loadpoint>
			<loadpoint>1,0.0005</loadpoint>
		</loadcurve>
	</LoadData>
	<Output>
		<plotfile type="febio"></plotfile>
		<logfile>
          <element_data data="sx">55</element_data>
        </logfile>
	</Output>
</febio_spec>
