<?xml version="1.0" encoding="ISO-8859-1"?>
<!--
Problem Description:
	A shell disk is constrained in x,y,z on the edges and has a pressure of 0 units
	at time t=0 to -0.005 units at time t=1.
Main Features:
	Shells
	Pressure
Secondary Features:
	
Materials:
	Neo-Hookean
Degrees of Freedom: 1014
Results:
	Steps Completed: 18
	Equilibrium Iterations: 150
	Right Hand Evaluations: 176
	Siffness Reformations: 19
	Other:
		The disk has a maximum z-displacement of 0.879 at time t=1.
Comments:
	
-->
<febio_spec version="1.2">
	<Control>
		<title>Pressure on Disk</title>
		<time_steps>100</time_steps>
		<step_size>0.01</step_size>
		<max_refs>15</max_refs>
		<max_ups>10</max_ups>
		<dtol>0.001</dtol>
		<etol>0.01</etol>
		<rtol>0</rtol>
		<lstol>0.9</lstol>
		<time_stepper>
			<dtmin>0.01</dtmin>
			<dtmax>0.1</dtmax>
			<max_retries>5</max_retries>
			<opt_iter>10</opt_iter>
		</time_stepper>
	</Control>
	<Material>
		<material id="1" name="Material 1" type="neo-Hookean">
			<E>1</E>
			<v>0.45</v>
		</material>
	</Material>
	<Geometry>
		<Nodes>
			<node id="1">-3.1819805e-001,-3.1819805e-001, 0.0000000e+000</node>
			<node id="2">-3.3647104e-001,-2.2431403e-001, 0.0000000e+000</node>
			<node id="3">-3.4537541e-001,-1.1512514e-001, 0.0000000e+000</node>
			<node id="4">-3.4785349e-001, 0.0000000e+000, 0.0000000e+000</node>
			<node id="5">-3.4537541e-001, 1.1512514e-001, 0.0000000e+000</node>
			<node id="6">-3.3647104e-001, 2.2431403e-001, 0.0000000e+000</node>
			<node id="7">-3.1819805e-001, 3.1819805e-001, 0.0000000e+000</node>
			<node id="8">-2.2431403e-001,-3.3647104e-001, 0.0000000e+000</node>
			<node id="9">-2.3334524e-001,-2.3334524e-001, 0.0000000e+000</node>
			<node id="10">-2.3592706e-001,-1.1796353e-001, 0.0000000e+000</node>
			<node id="11">-2.3591883e-001, 0.0000000e+000, 0.0000000e+000</node>
			<node id="12">-2.3592706e-001, 1.1796353e-001, 0.0000000e+000</node>
			<node id="13">-2.3334524e-001, 2.3334524e-001, 0.0000000e+000</node>
			<node id="14">-2.2431403e-001, 3.3647104e-001, 0.0000000e+000</node>
			<node id="15">-1.1512514e-001,-3.4537541e-001, 0.0000000e+000</node>
			<node id="16">-1.1796353e-001,-2.3592706e-001, 0.0000000e+000</node>
			<node id="17">-1.1667262e-001,-1.1667262e-001, 0.0000000e+000</node>
			<node id="18">-1.1466437e-001, 0.0000000e+000, 0.0000000e+000</node>
			<node id="19">-1.1667262e-001, 1.1667262e-001, 0.0000000e+000</node>
			<node id="20">-1.1796353e-001, 2.3592706e-001, 0.0000000e+000</node>
<!-- ... 173 like lines cut -->
		</Nodes>
		<Elements>
			<quad4 id="1" mat="1">     1,     8,     9,     2</quad4>
			<quad4 id="2" mat="1">     8,    15,    16,     9</quad4>
			<quad4 id="3" mat="1">    15,    22,    23,    16</quad4>
			<quad4 id="4" mat="1">    22,    29,    30,    23</quad4>
			<quad4 id="5" mat="1">    29,    36,    37,    30</quad4>
			<quad4 id="6" mat="1">    36,    43,    44,    37</quad4>
			<quad4 id="7" mat="1">     2,     9,    10,     3</quad4>
			<quad4 id="8" mat="1">     9,    16,    17,    10</quad4>
			<quad4 id="9" mat="1">    16,    23,    24,    17</quad4>
			<quad4 id="10" mat="1">    23,    30,    31,    24</quad4>
			<quad4 id="11" mat="1">    30,    37,    38,    31</quad4>
			<quad4 id="12" mat="1">    37,    44,    45,    38</quad4>
			<quad4 id="13" mat="1">     3,    10,    11,     4</quad4>
			<quad4 id="14" mat="1">    10,    17,    18,    11</quad4>
			<quad4 id="15" mat="1">    17,    24,    25,    18</quad4>
			<quad4 id="16" mat="1">    24,    31,    32,    25</quad4>
			<quad4 id="17" mat="1">    31,    38,    39,    32</quad4>
			<quad4 id="18" mat="1">    38,    45,    46,    39</quad4>
			<quad4 id="19" mat="1">     4,    11,    12,     5</quad4>
			<quad4 id="20" mat="1">    11,    18,    19,    12</quad4>
<!-- ... 160 like lines cut -->
		</Elements>
		<ElementData>
			<element id="1">
				<thickness>0.01,0.01,0.01,0.01</thickness>
			</element>
			<element id="2">
				<thickness>0.01,0.01,0.01,0.01</thickness>
			</element>
			<element id="3">
				<thickness>0.01,0.01,0.01,0.01</thickness>
			</element>
			<element id="4">
				<thickness>0.01,0.01,0.01,0.01</thickness>
			</element>
			<element id="5">
				<thickness>0.01,0.01,0.01,0.01</thickness>
			</element>
			<element id="6">
				<thickness>0.01,0.01,0.01,0.01</thickness>
			</element>
			<element id="7">
				<thickness>0.01,0.01,0.01,0.01</thickness>
			</element>
			<element id="8">
				<thickness>0.01,0.01,0.01,0.01</thickness>
			</element>
			<element id="9">
				<thickness>0.01,0.01,0.01,0.01</thickness>
			</element>
			<element id="10">
				<thickness>0.01,0.01,0.01,0.01</thickness>
			</element>
			<element id="11">
				<thickness>0.01,0.01,0.01,0.01</thickness>
			</element>
			<element id="12">
				<thickness>0.01,0.01,0.01,0.01</thickness>
			</element>
			<element id="13">
				<thickness>0.01,0.01,0.01,0.01</thickness>
			</element>
			<element id="14">
				<thickness>0.01,0.01,0.01,0.01</thickness>
			</element>
			<element id="15">
				<thickness>0.01,0.01,0.01,0.01</thickness>
			</element>
			<element id="16">
				<thickness>0.01,0.01,0.01,0.01</thickness>
			</element>
			<element id="17">
				<thickness>0.01,0.01,0.01,0.01</thickness>
			</element>
			<element id="18">
				<thickness>0.01,0.01,0.01,0.01</thickness>
			</element>
			<element id="19">
				<thickness>0.01,0.01,0.01,0.01</thickness>
			</element>
			<element id="20">
				<thickness>0.01,0.01,0.01,0.01</thickness>
			</element>
			<element id="21">
				<thickness>0.01,0.01,0.01,0.01</thickness>
			</element>
			<element id="22">
				<thickness>0.01,0.01,0.01,0.01</thickness>
			</element>
			<element id="23">
				<thickness>0.01,0.01,0.01,0.01</thickness>
			</element>
			<element id="24">
				<thickness>0.01,0.01,0.01,0.01</thickness>
			</element>
			<element id="25">
				<thickness>0.01,0.01,0.01,0.01</thickness>
			</element>
			<element id="26">
				<thickness>0.01,0.01,0.01,0.01</thickness>
			</element>
			<element id="27">
				<thickness>0.01,0.01,0.01,0.01</thickness>
			</element>
			<element id="28">
				<thickness>0.01,0.01,0.01,0.01</thickness>
			</element>
			<element id="29">
				<thickness>0.01,0.01,0.01,0.01</thickness>
			</element>
			<element id="30">
				<thickness>0.01,0.01,0.01,0.01</thickness>
			</element>
			<element id="31">
				<thickness>0.01,0.01,0.01,0.01</thickness>
			</element>
			<element id="32">
				<thickness>0.01,0.01,0.01,0.01</thickness>
			</element>
			<element id="33">
				<thickness>0.01,0.01,0.01,0.01</thickness>
			</element>
			<element id="34">
				<thickness>0.01,0.01,0.01,0.01</thickness>
			</element>
			<element id="35">
				<thickness>0.01,0.01,0.01,0.01</thickness>
			</element>
			<element id="36">
				<thickness>0.01,0.01,0.01,0.01</thickness>
			</element>
			<element id="37">
				<thickness>0.01,0.01,0.01,0.01</thickness>
			</element>
			<element id="38">
				<thickness>0.01,0.01,0.01,0.01</thickness>
			</element>
			<element id="39">
				<thickness>0.01,0.01,0.01,0.01</thickness>
			</element>
			<element id="40">
				<thickness>0.01,0.01,0.01,0.01</thickness>
			</element>
			<element id="41">
				<thickness>0.01,0.01,0.01,0.01</thickness>
			</element>
			<element id="42">
				<thickness>0.01,0.01,0.01,0.01</thickness>
			</element>
			<element id="43">
				<thickness>0.01,0.01,0.01,0.01</thickness>
			</element>
			<element id="44">
				<thickness>0.01,0.01,0.01,0.01</thickness>
			</element>
			<element id="45">
				<thickness>0.01,0.01,0.01,0.01</thickness>
			</element>
			<element id="46">
				<thickness>0.01,0.01,0.01,0.01</thickness>
			</element>
			<element id="47">
				<thickness>0.01,0.01,0.01,0.01</thickness>
			</element>
			<element id="48">
				<thickness>0.01,0.01,0.01,0.01</thickness>
			</element>
			<element id="49">
				<thickness>0.01,0.01,0.01,0.01</thickness>
			</element>
			<element id="50">
				<thickness>0.01,0.01,0.01,0.01</thickness>
			</element>
			<element id="51">
				<thickness>0.01,0.01,0.01,0.01</thickness>
			</element>
			<element id="52">
				<thickness>0.01,0.01,0.01,0.01</thickness>
			</element>
			<element id="53">
				<thickness>0.01,0.01,0.01,0.01</thickness>
			</element>
			<element id="54">
				<thickness>0.01,0.01,0.01,0.01</thickness>
			</element>
			<element id="55">
				<thickness>0.01,0.01,0.01,0.01</thickness>
			</element>
			<element id="56">
				<thickness>0.01,0.01,0.01,0.01</thickness>
			</element>
			<element id="57">
				<thickness>0.01,0.01,0.01,0.01</thickness>
			</element>
			<element id="58">
				<thickness>0.01,0.01,0.01,0.01</thickness>
			</element>
			<element id="59">
				<thickness>0.01,0.01,0.01,0.01</thickness>
			</element>
			<element id="60">
				<thickness>0.01,0.01,0.01,0.01</thickness>
			</element>
			<element id="61">
				<thickness>0.01,0.01,0.01,0.01</thickness>
			</element>
			<element id="62">
				<thickness>0.01,0.01,0.01,0.01</thickness>
			</element>
			<element id="63">
				<thickness>0.01,0.01,0.01,0.01</thickness>
			</element>
			<element id="64">
				<thickness>0.01,0.01,0.01,0.01</thickness>
			</element>
			<element id="65">
				<thickness>0.01,0.01,0.01,0.01</thickness>
			</element>
			<element id="66">
				<thickness>0.01,0.01,0.01,0.01</thickness>
			</element>
			<element id="67">
				<thickness>0.01,0.01,0.01,0.01</thickness>
			</element>
			<element id="68">
				<thickness>0.01,0.01,0.01,0.01</thickness>
			</element>
			<element id="69">
				<thickness>0.01,0.01,0.01,0.01</thickness>
			</element>
			<element id="70">
				<thickness>0.01,0.01,0.01,0.01</thickness>
			</element>
			<element id="71">
				<thickness>0.01,0.01,0.01,0.01</thickness>
			</element>
			<element id="72">
				<thickness>0.01,0.01,0.01,0.01</thickness>
			</element>
			<element id="73">
				<thickness>0.01,0.01,0.01,0.01</thickness>
			</element>
			<element id="74">
				<thickness>0.01,0.01,0.01,0.01</thickness>
			</element>
			<element id="75">
				<thickness>0.01,0.01,0.01,0.01</thickness>
			</element>
			<element id="76">
				<thickness>0.01,0.01,0.01,0.01</thickness>
			</element>
			<element id="77">
				<thickness>0.01,0.01,0.01,0.01</thickness>
			</element>
			<element id="78">
				<thickness>0.01,0.01,0.01,0.01</thickness>
			</element>
			<element id="79">
				<thickness>0.01,0.01,0.01,0.01</thickness>
			</element>
			<element id="80">
				<thickness>0.01,0.01,0.01,0.01</thickness>
			</element>
			<element id="81">
				<thickness>0.01,0.01,0.01,0.01</thickness>
			</element>
			<element id="82">
				<thickness>0.01,0.01,0.01,0.01</thickness>
			</element>
			<element id="83">
				<thickness>0.01,0.01,0.01,0.01</thickness>
			</element>
			<element id="84">
				<thickness>0.01,0.01,0.01,0.01</thickness>
			</element>
			<element id="85">
				<thickness>0.01,0.01,0.01,0.01</thickness>
			</element>
			<element id="86">
				<thickness>0.01,0.01,0.01,0.01</thickness>
			</element>
			<element id="87">
				<thickness>0.01,0.01,0.01,0.01</thickness>
			</element>
			<element id="88">
				<thickness>0.01,0.01,0.01,0.01</thickness>
			</element>
			<element id="89">
				<thickness>0.01,0.01,0.01,0.01</thickness>
			</element>
			<element id="90">
				<thickness>0.01,0.01,0.01,0.01</thickness>
			</element>
			<element id="91">
				<thickness>0.01,0.01,0.01,0.01</thickness>
			</element>
			<element id="92">
				<thickness>0.01,0.01,0.01,0.01</thickness>
			</element>
			<element id="93">
				<thickness>0.01,0.01,0.01,0.01</thickness>
			</element>
			<element id="94">
				<thickness>0.01,0.01,0.01,0.01</thickness>
			</element>
			<element id="95">
				<thickness>0.01,0.01,0.01,0.01</thickness>
			</element>
			<element id="96">
				<thickness>0.01,0.01,0.01,0.01</thickness>
			</element>
			<element id="97">
				<thickness>0.01,0.01,0.01,0.01</thickness>
			</element>
			<element id="98">
				<thickness>0.01,0.01,0.01,0.01</thickness>
			</element>
			<element id="99">
				<thickness>0.01,0.01,0.01,0.01</thickness>
			</element>
			<element id="100">
				<thickness>0.01,0.01,0.01,0.01</thickness>
			</element>
			<element id="101">
				<thickness>0.01,0.01,0.01,0.01</thickness>
			</element>
			<element id="102">
				<thickness>0.01,0.01,0.01,0.01</thickness>
			</element>
			<element id="103">
				<thickness>0.01,0.01,0.01,0.01</thickness>
			</element>
			<element id="104">
				<thickness>0.01,0.01,0.01,0.01</thickness>
			</element>
			<element id="105">
				<thickness>0.01,0.01,0.01,0.01</thickness>
			</element>
			<element id="106">
				<thickness>0.01,0.01,0.01,0.01</thickness>
			</element>
			<element id="107">
				<thickness>0.01,0.01,0.01,0.01</thickness>
			</element>
			<element id="108">
				<thickness>0.01,0.01,0.01,0.01</thickness>
			</element>
			<element id="109">
				<thickness>0.01,0.01,0.01,0.01</thickness>
			</element>
			<element id="110">
				<thickness>0.01,0.01,0.01,0.01</thickness>
			</element>
			<element id="111">
				<thickness>0.01,0.01,0.01,0.01</thickness>
			</element>
			<element id="112">
				<thickness>0.01,0.01,0.01,0.01</thickness>
			</element>
			<element id="113">
				<thickness>0.01,0.01,0.01,0.01</thickness>
			</element>
			<element id="114">
				<thickness>0.01,0.01,0.01,0.01</thickness>
			</element>
			<element id="115">
				<thickness>0.01,0.01,0.01,0.01</thickness>
			</element>
			<element id="116">
				<thickness>0.01,0.01,0.01,0.01</thickness>
			</element>
			<element id="117">
				<thickness>0.01,0.01,0.01,0.01</thickness>
			</element>
			<element id="118">
				<thickness>0.01,0.01,0.01,0.01</thickness>
			</element>
			<element id="119">
				<thickness>0.01,0.01,0.01,0.01</thickness>
			</element>
			<element id="120">
				<thickness>0.01,0.01,0.01,0.01</thickness>
			</element>
			<element id="121">
				<thickness>0.01,0.01,0.01,0.01</thickness>
			</element>
			<element id="122">
				<thickness>0.01,0.01,0.01,0.01</thickness>
			</element>
			<element id="123">
				<thickness>0.01,0.01,0.01,0.01</thickness>
			</element>
			<element id="124">
				<thickness>0.01,0.01,0.01,0.01</thickness>
			</element>
			<element id="125">
				<thickness>0.01,0.01,0.01,0.01</thickness>
			</element>
			<element id="126">
				<thickness>0.01,0.01,0.01,0.01</thickness>
			</element>
			<element id="127">
				<thickness>0.01,0.01,0.01,0.01</thickness>
			</element>
			<element id="128">
				<thickness>0.01,0.01,0.01,0.01</thickness>
			</element>
			<element id="129">
				<thickness>0.01,0.01,0.01,0.01</thickness>
			</element>
			<element id="130">
				<thickness>0.01,0.01,0.01,0.01</thickness>
			</element>
			<element id="131">
				<thickness>0.01,0.01,0.01,0.01</thickness>
			</element>
			<element id="132">
				<thickness>0.01,0.01,0.01,0.01</thickness>
			</element>
			<element id="133">
				<thickness>0.01,0.01,0.01,0.01</thickness>
			</element>
			<element id="134">
				<thickness>0.01,0.01,0.01,0.01</thickness>
			</element>
			<element id="135">
				<thickness>0.01,0.01,0.01,0.01</thickness>
			</element>
			<element id="136">
				<thickness>0.01,0.01,0.01,0.01</thickness>
			</element>
			<element id="137">
				<thickness>0.01,0.01,0.01,0.01</thickness>
			</element>
			<element id="138">
				<thickness>0.01,0.01,0.01,0.01</thickness>
			</element>
			<element id="139">
				<thickness>0.01,0.01,0.01,0.01</thickness>
			</element>
			<element id="140">
				<thickness>0.01,0.01,0.01,0.01</thickness>
			</element>
			<element id="141">
				<thickness>0.01,0.01,0.01,0.01</thickness>
			</element>
			<element id="142">
				<thickness>0.01,0.01,0.01,0.01</thickness>
			</element>
			<element id="143">
				<thickness>0.01,0.01,0.01,0.01</thickness>
			</element>
			<element id="144">
				<thickness>0.01,0.01,0.01,0.01</thickness>
			</element>
			<element id="145">
				<thickness>0.01,0.01,0.01,0.01</thickness>
			</element>
			<element id="146">
				<thickness>0.01,0.01,0.01,0.01</thickness>
			</element>
			<element id="147">
				<thickness>0.01,0.01,0.01,0.01</thickness>
			</element>
			<element id="148">
				<thickness>0.01,0.01,0.01,0.01</thickness>
			</element>
			<element id="149">
				<thickness>0.01,0.01,0.01,0.01</thickness>
			</element>
			<element id="150">
				<thickness>0.01,0.01,0.01,0.01</thickness>
			</element>
			<element id="151">
				<thickness>0.01,0.01,0.01,0.01</thickness>
			</element>
			<element id="152">
				<thickness>0.01,0.01,0.01,0.01</thickness>
			</element>
			<element id="153">
				<thickness>0.01,0.01,0.01,0.01</thickness>
			</element>
			<element id="154">
				<thickness>0.01,0.01,0.01,0.01</thickness>
			</element>
			<element id="155">
				<thickness>0.01,0.01,0.01,0.01</thickness>
			</element>
			<element id="156">
				<thickness>0.01,0.01,0.01,0.01</thickness>
			</element>
			<element id="157">
				<thickness>0.01,0.01,0.01,0.01</thickness>
			</element>
			<element id="158">
				<thickness>0.01,0.01,0.01,0.01</thickness>
			</element>
			<element id="159">
				<thickness>0.01,0.01,0.01,0.01</thickness>
			</element>
			<element id="160">
				<thickness>0.01,0.01,0.01,0.01</thickness>
			</element>
			<element id="161">
				<thickness>0.01,0.01,0.01,0.01</thickness>
			</element>
			<element id="162">
				<thickness>0.01,0.01,0.01,0.01</thickness>
			</element>
			<element id="163">
				<thickness>0.01,0.01,0.01,0.01</thickness>
			</element>
			<element id="164">
				<thickness>0.01,0.01,0.01,0.01</thickness>
			</element>
			<element id="165">
				<thickness>0.01,0.01,0.01,0.01</thickness>
			</element>
			<element id="166">
				<thickness>0.01,0.01,0.01,0.01</thickness>
			</element>
			<element id="167">
				<thickness>0.01,0.01,0.01,0.01</thickness>
			</element>
			<element id="168">
				<thickness>0.01,0.01,0.01,0.01</thickness>
			</element>
			<element id="169">
				<thickness>0.01,0.01,0.01,0.01</thickness>
			</element>
			<element id="170">
				<thickness>0.01,0.01,0.01,0.01</thickness>
			</element>
			<element id="171">
				<thickness>0.01,0.01,0.01,0.01</thickness>
			</element>
			<element id="172">
				<thickness>0.01,0.01,0.01,0.01</thickness>
			</element>
			<element id="173">
				<thickness>0.01,0.01,0.01,0.01</thickness>
			</element>
			<element id="174">
				<thickness>0.01,0.01,0.01,0.01</thickness>
			</element>
			<element id="175">
				<thickness>0.01,0.01,0.01,0.01</thickness>
			</element>
			<element id="176">
				<thickness>0.01,0.01,0.01,0.01</thickness>
			</element>
			<element id="177">
				<thickness>0.01,0.01,0.01,0.01</thickness>
			</element>
			<element id="178">
				<thickness>0.01,0.01,0.01,0.01</thickness>
			</element>
			<element id="179">
				<thickness>0.01,0.01,0.01,0.01</thickness>
			</element>
			<element id="180">
				<thickness>0.01,0.01,0.01,0.01</thickness>
			</element>
		</ElementData>
	</Geometry>
	<Boundary>
		<fix>
			<node id="4" bc="y"></node>
			<node id="4" bc="v"></node>
			<node id="11" bc="y"></node>
			<node id="11" bc="v"></node>
			<node id="18" bc="y"></node>
			<node id="18" bc="v"></node>
			<node id="22" bc="x"></node>
			<node id="22" bc="u"></node>
			<node id="23" bc="x"></node>
			<node id="23" bc="u"></node>
			<node id="24" bc="x"></node>
			<node id="24" bc="u"></node>
			<node id="25" bc="xy"></node>
			<node id="25" bc="uv"></node>
			<node id="26" bc="x"></node>
			<node id="26" bc="u"></node>
			<node id="27" bc="x"></node>
			<node id="27" bc="u"></node>
			<node id="28" bc="x"></node>
			<node id="28" bc="u"></node>
			<node id="32" bc="y"></node>
			<node id="32" bc="v"></node>
			<node id="39" bc="y"></node>
			<node id="39" bc="v"></node>
			<node id="46" bc="y"></node>
			<node id="46" bc="v"></node>
			<node id="52" bc="y"></node>
			<node id="52" bc="v"></node>
			<node id="58" bc="x"></node>
			<node id="58" bc="u"></node>
			<node id="64" bc="y"></node>
			<node id="64" bc="v"></node>
			<node id="70" bc="x"></node>
			<node id="70" bc="u"></node>
			<node id="76" bc="y"></node>
			<node id="76" bc="v"></node>
			<node id="82" bc="x"></node>
			<node id="82" bc="u"></node>
			<node id="88" bc="y"></node>
			<node id="88" bc="v"></node>
			<node id="94" bc="x"></node>
			<node id="94" bc="u"></node>
			<node id="100" bc="y"></node>
			<node id="100" bc="v"></node>
			<node id="106" bc="x"></node>
			<node id="106" bc="u"></node>
			<node id="112" bc="y"></node>
			<node id="112" bc="v"></node>
			<node id="118" bc="x"></node>
			<node id="118" bc="u"></node>
			<node id="124" bc="y"></node>
			<node id="124" bc="v"></node>
			<node id="130" bc="x"></node>
			<node id="130" bc="u"></node>
			<node id="136" bc="y"></node>
			<node id="136" bc="v"></node>
			<node id="142" bc="x"></node>
			<node id="142" bc="u"></node>
			<node id="148" bc="y"></node>
			<node id="148" bc="v"></node>
			<node id="154" bc="x"></node>
			<node id="154" bc="u"></node>
			<node id="160" bc="y"></node>
			<node id="160" bc="v"></node>
			<node id="166" bc="x"></node>
			<node id="166" bc="u"></node>
			<node id="170" bc="xyz"></node>
			<node id="171" bc="xyz"></node>
			<node id="172" bc="xyz"></node>
			<node id="172" bc="v"></node>
			<node id="173" bc="xyz"></node>
			<node id="174" bc="xyz"></node>
			<node id="175" bc="xyz"></node>
			<node id="176" bc="xyz"></node>
			<node id="177" bc="xyz"></node>
			<node id="178" bc="xyz"></node>
			<node id="178" bc="u"></node>
			<node id="179" bc="xyz"></node>
			<node id="180" bc="xyz"></node>
			<node id="181" bc="xyz"></node>
			<node id="182" bc="xyz"></node>
			<node id="183" bc="xyz"></node>
			<node id="184" bc="xyz"></node>
			<node id="184" bc="v"></node>
			<node id="185" bc="xyz"></node>
			<node id="186" bc="xyz"></node>
			<node id="187" bc="xyz"></node>
			<node id="188" bc="xyz"></node>
			<node id="189" bc="xyz"></node>
			<node id="190" bc="xyz"></node>
			<node id="190" bc="u"></node>
			<node id="191" bc="xyz"></node>
			<node id="192" bc="xyz"></node>
			<node id="193" bc="xyz"></node>
		</fix>
	</Boundary>
	<Loads>
		<pressure>
			<quad4 id="1" lc="1" scale="1">     1,     8,     9,     2</quad4>
			<quad4 id="2" lc="1" scale="1">     8,    15,    16,     9</quad4>
			<quad4 id="3" lc="1" scale="1">    15,    22,    23,    16</quad4>
			<quad4 id="4" lc="1" scale="1">    22,    29,    30,    23</quad4>
			<quad4 id="5" lc="1" scale="1">    29,    36,    37,    30</quad4>
			<quad4 id="6" lc="1" scale="1">    36,    43,    44,    37</quad4>
			<quad4 id="7" lc="1" scale="1">     2,     9,    10,     3</quad4>
			<quad4 id="8" lc="1" scale="1">     9,    16,    17,    10</quad4>
			<quad4 id="9" lc="1" scale="1">    16,    23,    24,    17</quad4>
			<quad4 id="10" lc="1" scale="1">    23,    30,    31,    24</quad4>
			<quad4 id="11" lc="1" scale="1">    30,    37,    38,    31</quad4>
			<quad4 id="12" lc="1" scale="1">    37,    44,    45,    38</quad4>
			<quad4 id="13" lc="1" scale="1">     3,    10,    11,     4</quad4>
			<quad4 id="14" lc="1" scale="1">    10,    17,    18,    11</quad4>
			<quad4 id="15" lc="1" scale="1">    17,    24,    25,    18</quad4>
			<quad4 id="16" lc="1" scale="1">    24,    31,    32,    25</quad4>
			<quad4 id="17" lc="1" scale="1">    31,    38,    39,    32</quad4>
			<quad4 id="18" lc="1" scale="1">    38,    45,    46,    39</quad4>
			<quad4 id="19" lc="1" scale="1">     4,    11,    12,     5</quad4>
			<quad4 id="20" lc="1" scale="1">    11,    18,    19,    12</quad4>
<!-- ... 160 like lines cut -->
		</pressure>
	</Loads>
	<LoadData>
		<loadcurve id="1">
			<loadpoint>0,0</loadpoint>
			<loadpoint>1,-0.005</loadpoint>
		</loadcurve>
	</LoadData>
	<Output>
		<plotfile type="febio"></plotfile>
        <logfile>
          <element_data data="sx">22</element_data>
        </logfile>
	</Output>
</febio_spec>
