<?xml version="1.0" encoding="ISO-8859-1"?>
<!--
Problem Description:
	A cantilever beam composed of tetrahedral elements has a traction force of
	-1 unit in the z-direction applied to free end.
Main Features:
	Tetrahedral element
Secondary Features:
	Traction force
Materials:
	Neo-Hookean
Degrees of Freedom: 2937
Results:
	Steps Completed: 10
	Equilibrium Iterations: 60
	Right Hand Evaluations: 70
	Siffness Reformations: 20
	Other:
		The free end of the cantilever has a maximum displacement of
		6.18 units at time t=1.
Comments:
	
-->
<febio_spec version="1.2">
	<Control>
		<title>Tetrahedral Cantilever Beam</title>
		<time_steps>10</time_steps>
		<step_size>0.1</step_size>
		<max_refs>50</max_refs>
		<max_ups>10</max_ups>
		<dtol>0.001</dtol>
		<etol>0.01</etol>
		<rtol>0</rtol>
		<lstol>0</lstol>
		<integration>
			<rule elem="tet4" type="UT4">
				<alpha>0.05</alpha>
				<iso_stab>1</iso_stab>
			</rule>
		</integration>
	</Control>
	<Material>
		<material id="1" name="Material 1" type="neo-Hookean">
			<density>1</density>
			<E>500</E>
			<v>0.49</v>
		</material>
	</Material>
	<Geometry>
		<Nodes>
			<node id="1">-5.0000000e+000,-1.0000000e+000, 0.0000000e+000</node>
			<node id="2">-5.0000000e+000,-1.0000000e+000, 1.0000000e+000</node>
			<node id="3">-5.0000000e+000, 1.0000000e+000, 0.0000000e+000</node>
			<node id="4">-5.0000000e+000, 1.0000000e+000, 1.0000000e+000</node>
			<node id="5"> 5.0000000e+000,-1.0000000e+000, 0.0000000e+000</node>
			<node id="6"> 5.0000000e+000,-1.0000000e+000, 1.0000000e+000</node>
			<node id="7"> 5.0000000e+000, 1.0000000e+000, 0.0000000e+000</node>
			<node id="8"> 5.0000000e+000, 1.0000000e+000, 1.0000000e+000</node>
			<node id="9"> 0.0000000e+000, 1.0000000e+000, 1.0000000e+000</node>
			<node id="10"> 0.0000000e+000,-1.0000000e+000, 1.0000000e+000</node>
			<node id="11"> 0.0000000e+000,-1.0000000e+000, 0.0000000e+000</node>
			<node id="12"> 0.0000000e+000, 1.0000000e+000, 0.0000000e+000</node>
			<node id="13"> 2.5000000e+000,-1.0000000e+000, 1.0000000e+000</node>
			<node id="14"> 2.5000000e+000,-1.0000000e+000, 0.0000000e+000</node>
			<node id="15"> 2.5000000e+000, 1.0000000e+000, 0.0000000e+000</node>
			<node id="16"> 2.5000000e+000, 1.0000000e+000, 1.0000000e+000</node>
			<node id="17">-2.5000000e+000,-1.0000000e+000, 1.0000000e+000</node>
			<node id="18">-2.5000000e+000,-1.0000000e+000, 0.0000000e+000</node>
			<node id="19">-2.5000000e+000, 1.0000000e+000, 0.0000000e+000</node>
			<node id="20">-2.5000000e+000, 1.0000000e+000, 1.0000000e+000</node>
<!-- ... 991 like lines cut -->
		</Nodes>
		<Elements>
			<tet4 id="1" mat="1">   237,   580,   398,   581</tet4>
			<tet4 id="2" mat="1">   755,   756,   566,   902</tet4>
			<tet4 id="3" mat="1">   326,   325,    68,   969</tet4>
			<tet4 id="4" mat="1">   622,   938,    48,  1009</tet4>
			<tet4 id="5" mat="1">   139,   597,   410,   898</tet4>
			<tet4 id="6" mat="1">   159,   635,   634,   828</tet4>
			<tet4 id="7" mat="1">   671,   855,   662,   966</tet4>
			<tet4 id="8" mat="1">   369,   751,   549,   754</tet4>
			<tet4 id="9" mat="1">    80,   387,   386,   569</tet4>
			<tet4 id="10" mat="1">   119,   511,   339,   694</tet4>
			<tet4 id="11" mat="1">   495,   687,   329,   888</tet4>
			<tet4 id="12" mat="1">   282,   444,   443,   842</tet4>
			<tet4 id="13" mat="1">   452,   639,   638,   848</tet4>
			<tet4 id="14" mat="1">   525,   527,   521,   858</tet4>
			<tet4 id="15" mat="1">   644,   955,   451,   999</tet4>
			<tet4 id="16" mat="1">   534,   692,   356,   732</tet4>
			<tet4 id="17" mat="1">   190,   321,    67,   322</tet4>
			<tet4 id="18" mat="1">   642,   669,   453,   861</tet4>
			<tet4 id="19" mat="1">   581,   742,   738,   896</tet4>
			<tet4 id="20" mat="1">   362,   543,   364,   790</tet4>
<!-- ... 3953 like lines cut -->
		</Elements>
	</Geometry>
	<Boundary>
		<fix>
			<node id="1" bc="xyz"/>
			<node id="2" bc="xyz"/>
			<node id="3" bc="xyz"/>
			<node id="4" bc="xyz"/>
			<node id="51" bc="xyz"/>
			<node id="52" bc="xyz"/>
			<node id="86" bc="xyz"/>
			<node id="87" bc="xyz"/>
			<node id="88" bc="xyz"/>
			<node id="145" bc="xyz"/>
			<node id="146" bc="xyz"/>
			<node id="147" bc="xyz"/>
			<node id="148" bc="xyz"/>
			<node id="260" bc="xyz"/>
			<node id="261" bc="xyz"/>
			<node id="262" bc="xyz"/>
			<node id="263" bc="xyz"/>
			<node id="266" bc="xyz"/>
			<node id="267" bc="xyz"/>
			<node id="269" bc="xyz"/>
<!-- ... 12 like lines cut -->
		</fix>
	</Boundary>
	<Loads>
		<traction>
			<tri3 id="1" lc="1" tx="0" ty="0" tz="-1">   190,   322,    67</tri3>
			<tri3 id="2" lc="1" tx="0" ty="0" tz="-1">   108,   193,   107</tri3>
			<tri3 id="3" lc="1" tx="0" ty="0" tz="-1">     6,   108,   107</tri3>
			<tri3 id="4" lc="1" tx="0" ty="0" tz="-1">    67,   193,   108</tri3>
			<tri3 id="5" lc="1" tx="0" ty="0" tz="-1">   327,   680,   865</tri3>
			<tri3 id="6" lc="1" tx="0" ty="0" tz="-1">   118,   508,   706</tri3>
			<tri3 id="7" lc="1" tx="0" ty="0" tz="-1">   515,   341,   865</tri3>
			<tri3 id="8" lc="1" tx="0" ty="0" tz="-1">   191,   190,     5</tri3>
			<tri3 id="9" lc="1" tx="0" ty="0" tz="-1">   109,    66,   193</tri3>
			<tri3 id="10" lc="1" tx="0" ty="0" tz="-1">   337,     8,   338</tri3>
			<tri3 id="11" lc="1" tx="0" ty="0" tz="-1">   199,   515,   700</tri3>
			<tri3 id="12" lc="1" tx="0" ty="0" tz="-1">   118,   337,   508</tri3>
			<tri3 id="13" lc="1" tx="0" ty="0" tz="-1">   190,   191,   322</tri3>
			<tri3 id="14" lc="1" tx="0" ty="0" tz="-1">   109,   193,   322</tri3>
			<tri3 id="15" lc="1" tx="0" ty="0" tz="-1">    66,   107,   193</tri3>
			<tri3 id="16" lc="1" tx="0" ty="0" tz="-1">   515,   194,   700</tri3>
			<tri3 id="17" lc="1" tx="0" ty="0" tz="-1">    42,   505,   700</tri3>
			<tri3 id="18" lc="1" tx="0" ty="0" tz="-1">   700,  1007,   199</tri3>
			<tri3 id="19" lc="1" tx="0" ty="0" tz="-1">   109,   493,   680</tri3>
			<tri3 id="20" lc="1" tx="0" ty="0" tz="-1">   193,    67,   322</tri3>
<!-- ... 28 like lines cut -->
		</traction>
	</Loads>
	<LoadData>
		<loadcurve id="1" type="smooth" extend="constant">
			<loadpoint>0,0</loadpoint>
			<loadpoint>1,1</loadpoint>
		</loadcurve>
	</LoadData>
	<Output>
		<plotfile type="febio"></plotfile>
        <logfile>
          <element_data data="Ez">657</element_data>
        </logfile>		
	</Output>
</febio_spec>
