<?xml version="1.0" encoding="ISO-8859-1"?>
<!--
Problem Description:
	A block composed of tetrahedral elements has its left end nodes fixed and
	the right end nodes have a displacement of 1 unit in the x-direction at time
	t=1.
Main Features:
	Tetrahedral element
Secondary Features:
	
Materials:
	Neo-Hookean
Degrees of Freedom: 1145
Results:
	Steps Completed: 10
	Equilibrium Iterations: 32
	Right Hand Evaluations: 42
	Siffness Reformations: 32
	Other:
		The maximum z displacement is -0.197 units at time t=1.
Comments:
	
-->
<febio_spec version="1.2">
	<Control>
		<title>Tensile Test with Tetrahedral Elements</title>
		<time_steps>10</time_steps>
		<step_size>0.1</step_size>
		<max_refs>50</max_refs>
		<max_ups>0</max_ups>
		<dtol>0.001</dtol>
		<etol>0.01</etol>
		<rtol>0</rtol>
		<lstol>0</lstol>
		<integration>
			<rule elem="tet4" type="UT4">
				<alpha>0.05</alpha>
				<iso_stab>0</iso_stab>
			</rule>
		</integration>
	</Control>
	<Material>
		<material id="1" name="Material 1" type="neo-Hookean">
			<density>1</density>
			<E>1</E>
			<v>0.49</v>
		</material>
	</Material>
	<Geometry>
		<Nodes>
			<node id="1">-5.0000000e-001,-5.0000000e-001, 0.0000000e+000</node>
			<node id="2">-5.0000000e-001,-5.0000000e-001, 1.0000000e+000</node>
			<node id="3">-5.0000000e-001, 5.0000000e-001, 0.0000000e+000</node>
			<node id="4">-5.0000000e-001, 5.0000000e-001, 1.0000000e+000</node>
			<node id="5"> 5.0000000e-001,-5.0000000e-001, 0.0000000e+000</node>
			<node id="6"> 5.0000000e-001,-5.0000000e-001, 1.0000000e+000</node>
			<node id="7"> 5.0000000e-001, 5.0000000e-001, 0.0000000e+000</node>
			<node id="8"> 5.0000000e-001, 5.0000000e-001, 1.0000000e+000</node>
			<node id="9">-5.0000000e-001, 0.0000000e+000, 1.0000000e+000</node>
			<node id="10">-5.0000000e-001, 5.0000000e-001, 5.0000000e-001</node>
			<node id="11">-5.0000000e-001,-5.0000000e-001, 5.0000000e-001</node>
			<node id="12">-5.0000000e-001, 0.0000000e+000, 0.0000000e+000</node>
			<node id="13"> 5.0000000e-001, 0.0000000e+000, 0.0000000e+000</node>
			<node id="14"> 5.0000000e-001,-5.0000000e-001, 5.0000000e-001</node>
			<node id="15"> 5.0000000e-001, 5.0000000e-001, 5.0000000e-001</node>
			<node id="16"> 5.0000000e-001, 0.0000000e+000, 1.0000000e+000</node>
			<node id="17"> 0.0000000e+000, 5.0000000e-001, 0.0000000e+000</node>
			<node id="18">-5.0000000e-001, 0.0000000e+000, 5.0000000e-001</node>
			<node id="19"> 0.0000000e+000,-5.0000000e-001, 0.0000000e+000</node>
			<node id="20"> 0.0000000e+000, 0.0000000e+000, 0.0000000e+000</node>
<!-- ... 472 like lines cut -->
		</Nodes>
		<Elements>
			<tet4 id="1" mat="1">   228,   155,    83,   319</tet4>
			<tet4 id="2" mat="1">   275,   281,   276,   341</tet4>
			<tet4 id="3" mat="1">   252,   407,   327,   466</tet4>
			<tet4 id="4" mat="1">    39,   158,   157,   159</tet4>
			<tet4 id="5" mat="1">    65,   239,    59,   427</tet4>
			<tet4 id="6" mat="1">   140,   212,    23,   389</tet4>
			<tet4 id="7" mat="1">    30,   266,   166,   267</tet4>
			<tet4 id="8" mat="1">   101,   245,   171,   343</tet4>
			<tet4 id="9" mat="1">    88,   319,   229,   320</tet4>
			<tet4 id="10" mat="1">   374,   405,   183,   425</tet4>
			<tet4 id="11" mat="1">    63,   263,   193,   359</tet4>
			<tet4 id="12" mat="1">   148,   311,    52,   335</tet4>
			<tet4 id="13" mat="1">     4,   291,    80,   292</tet4>
			<tet4 id="14" mat="1">   194,   266,   115,   371</tet4>
			<tet4 id="15" mat="1">   198,   239,   171,   241</tet4>
			<tet4 id="16" mat="1">   112,   174,    64,   193</tet4>
			<tet4 id="17" mat="1">    89,   219,   155,   229</tet4>
			<tet4 id="18" mat="1">    73,   280,   273,   438</tet4>
			<tet4 id="19" mat="1">    76,   133,    44,   279</tet4>
			<tet4 id="20" mat="1">    44,   203,   124,   208</tet4>
<!-- ... 1998 like lines cut -->
		</Elements>
	</Geometry>
	<Boundary>
		<fix>
			<node id="1" bc="xyz"/>
			<node id="2" bc="xyz"/>
			<node id="3" bc="xyz"/>
			<node id="4" bc="xyz"/>
			<node id="9" bc="xyz"/>
			<node id="10" bc="xyz"/>
			<node id="11" bc="xyz"/>
			<node id="12" bc="xyz"/>
			<node id="18" bc="xyz"/>
			<node id="24" bc="xyz"/>
			<node id="25" bc="xyz"/>
			<node id="27" bc="xyz"/>
			<node id="28" bc="xyz"/>
			<node id="30" bc="xyz"/>
			<node id="34" bc="xyz"/>
			<node id="35" bc="xyz"/>
			<node id="41" bc="xyz"/>
			<node id="43" bc="xyz"/>
			<node id="49" bc="xyz"/>
			<node id="54" bc="xyz"/>
<!-- ... 47 like lines cut -->
		</fix>
		<fix>
			<node id="5" bc="yz"/>
			<node id="6" bc="yz"/>
			<node id="7" bc="yz"/>
			<node id="8" bc="yz"/>
			<node id="13" bc="yz"/>
			<node id="14" bc="yz"/>
			<node id="15" bc="yz"/>
			<node id="16" bc="yz"/>
			<node id="22" bc="yz"/>
			<node id="32" bc="yz"/>
			<node id="33" bc="yz"/>
			<node id="38" bc="yz"/>
			<node id="39" bc="yz"/>
			<node id="44" bc="yz"/>
			<node id="47" bc="yz"/>
			<node id="51" bc="yz"/>
			<node id="76" bc="yz"/>
			<node id="83" bc="yz"/>
			<node id="84" bc="yz"/>
			<node id="88" bc="yz"/>
<!-- ... 45 like lines cut -->
		</fix>
		<prescribe>
			<node id="5" bc="x" lc="1">1</node>
			<node id="6" bc="x" lc="1">1</node>
			<node id="7" bc="x" lc="1">1</node>
			<node id="8" bc="x" lc="1">1</node>
			<node id="13" bc="x" lc="1">1</node>
			<node id="14" bc="x" lc="1">1</node>
			<node id="15" bc="x" lc="1">1</node>
			<node id="16" bc="x" lc="1">1</node>
			<node id="22" bc="x" lc="1">1</node>
			<node id="32" bc="x" lc="1">1</node>
			<node id="33" bc="x" lc="1">1</node>
			<node id="38" bc="x" lc="1">1</node>
			<node id="39" bc="x" lc="1">1</node>
			<node id="44" bc="x" lc="1">1</node>
			<node id="47" bc="x" lc="1">1</node>
			<node id="51" bc="x" lc="1">1</node>
			<node id="76" bc="x" lc="1">1</node>
			<node id="83" bc="x" lc="1">1</node>
			<node id="84" bc="x" lc="1">1</node>
			<node id="88" bc="x" lc="1">1</node>
<!-- ... 45 like lines cut -->
		</prescribe>
	</Boundary>
	<LoadData>
		<loadcurve id="1" type="smooth" extend="constant">
			<loadpoint>0,0</loadpoint>
			<loadpoint>1,1</loadpoint>
		</loadcurve>
	</LoadData>
	<Output>
		<plotfile type="febio"></plotfile>
        <logfile>
          <element_data data="Ex">205</element_data>
        </logfile>		
	</Output>
</febio_spec>
