<?xml version="1.0" encoding="ISO-8859-1"?>
<!--
Problem Description:
	Cook's membrane problem for unstructured nodally integrated tet mesh.  The left
	face is constrained and a traction force of 50 kPa is applied in the y-direction
	to the right face.
Main Features:
	Nodally integrated tet
Secondary Features:
	Traction force
Materials:
	Mooney-Rivlin
Degrees of Freedom: 4494
Results:
	Steps Completed: 28
	Equilibrium Iterations: 324
	Right Hand Evaluations: 421
	Siffness Reformations: 43
	Other:
		The maximum Von Mises stress is 207 at time t=1.
 
Comments:
	
-->
<febio_spec version="1.2">
	<Module type="solid"/>
	<Control>
		<time_steps>10</time_steps>
		<step_size>0.1</step_size>
		<max_refs>15</max_refs>
		<max_ups>10</max_ups>
		<dtol>0.001</dtol>
		<etol>0.01</etol>
		<rtol>0</rtol>
		<lstol>0.9</lstol>
		<time_stepper>
			<dtmin>0.01</dtmin>
			<dtmax>0.1</dtmax>
			<max_retries>5</max_retries>
			<opt_iter>10</opt_iter>
		</time_stepper>
		<integration>
			<rule elem="tet4" type="UT4">
			<alpha>0.2</alpha>
			<iso_stab>1</iso_stab>
			</rule>
		</integration>
	</Control>
	<Material>
		<material id="1" name="Material2" type="Mooney-Rivlin">
			<density>5e-007</density>
			<c1>40.12</c1>
			<c2>0</c2>
			<k>40094</k>
		</material>
	</Material>
	<Geometry>
		<Nodes>
			<node id="1"> 0.0000000e+000, 0.0000000e+000, 0.0000000e+000</node>
			<node id="2"> 4.8000000e+001, 4.4000000e+001, 0.0000000e+000</node>
			<node id="3"> 4.8000000e+001, 6.0000000e+001, 0.0000000e+000</node>
			<node id="4"> 0.0000000e+000, 4.4000000e+001, 0.0000000e+000</node>
			<node id="5"> 0.0000000e+000, 0.0000000e+000, 1.0000000e+000</node>
			<node id="6"> 4.8000000e+001, 4.4000000e+001, 1.0000000e+000</node>
			<node id="7"> 4.8000000e+001, 6.0000000e+001, 1.0000000e+000</node>
			<node id="8"> 0.0000000e+000, 4.4000000e+001, 1.0000000e+000</node>
			<node id="9"> 2.4000000e+001, 2.2000000e+001, 0.0000000e+000</node>
			<node id="10"> 2.4000000e+001, 2.2000000e+001, 1.0000000e+000</node>
			<node id="11"> 2.4000000e+001, 5.2000000e+001, 0.0000000e+000</node>
			<node id="12"> 2.4000000e+001, 5.2000000e+001, 1.0000000e+000</node>
			<node id="13"> 3.6000000e+001, 5.6000000e+001, 0.0000000e+000</node>
			<node id="14"> 3.6000000e+001, 5.6000000e+001, 1.0000000e+000</node>
			<node id="15"> 0.0000000e+000, 2.2000000e+001, 1.0000000e+000</node>
			<node id="16"> 1.2000000e+001, 1.1000000e+001, 1.0000000e+000</node>
			<node id="17"> 1.2000000e+001, 1.1000000e+001, 0.0000000e+000</node>
			<node id="18"> 0.0000000e+000, 2.2000000e+001, 0.0000000e+000</node>
			<node id="19"> 3.6000000e+001, 3.3000000e+001, 1.0000000e+000</node>
			<node id="20"> 3.6000000e+001, 3.3000000e+001, 0.0000000e+000</node>
<!-- ... 2293 like lines cut -->
		</Nodes>
		<Elements>
			<tet4 id="1" mat="1">   396,  1598,   460,  1599</tet4>
			<tet4 id="2" mat="1">   400,  1577,   399,  1578</tet4>
			<tet4 id="3" mat="1">   848,  1783,   979,  2196</tet4>
			<tet4 id="4" mat="1">   383,  1553,   278,  1554</tet4>
			<tet4 id="5" mat="1">  1191,  1328,  1264,  1988</tet4>
			<tet4 id="6" mat="1">   107,   190,   155,  1505</tet4>
			<tet4 id="7" mat="1">   376,  1507,    99,  1508</tet4>
			<tet4 id="8" mat="1">   192,   379,   275,   380</tet4>
			<tet4 id="9" mat="1">   406,   502,   140,  1634</tet4>
			<tet4 id="10" mat="1">   385,  1570,    69,  1651</tet4>
			<tet4 id="11" mat="1">   406,  1579,   502,  1581</tet4>
			<tet4 id="12" mat="1">   168,   171,   116,   238</tet4>
			<tet4 id="13" mat="1">   734,  1718,   633,  1719</tet4>
			<tet4 id="14" mat="1">  1290,  2000,  1999,  2002</tet4>
			<tet4 id="15" mat="1">   733,  1670,   646,  1671</tet4>
			<tet4 id="16" mat="1">   409,  1546,   219,  1548</tet4>
			<tet4 id="17" mat="1">    61,  1530,   161,  1531</tet4>
			<tet4 id="18" mat="1">    26,   337,   236,  1513</tet4>
			<tet4 id="19" mat="1">    93,   188,   153,  1497</tet4>
			<tet4 id="20" mat="1">   210,   229,   105,   260</tet4>
<!-- ... 6935 like lines cut -->
		</Elements>
	</Geometry>
	<Boundary>
		<fix>
			<node id="1" bc="xy"/>
			<node id="4" bc="xy"/>
			<node id="5" bc="xy"/>
			<node id="8" bc="xy"/>
			<node id="15" bc="xy"/>
			<node id="18" bc="xy"/>
			<node id="25" bc="xy"/>
			<node id="27" bc="xy"/>
			<node id="36" bc="xy"/>
			<node id="37" bc="xy"/>
			<node id="42" bc="xy"/>
			<node id="43" bc="xy"/>
			<node id="48" bc="xy"/>
			<node id="49" bc="xy"/>
			<node id="66" bc="xy"/>
			<node id="67" bc="xy"/>
			<node id="71" bc="xy"/>
			<node id="72" bc="xy"/>
			<node id="109" bc="xy"/>
			<node id="110" bc="xy"/>
<!-- ... 46 like lines cut -->
		</fix>
		<fix>
			<node id="1" bc="z"/>
			<node id="2" bc="z"/>
			<node id="3" bc="z"/>
			<node id="4" bc="z"/>
			<node id="5" bc="z"/>
			<node id="6" bc="z"/>
			<node id="7" bc="z"/>
			<node id="8" bc="z"/>
			<node id="9" bc="z"/>
			<node id="10" bc="z"/>
			<node id="11" bc="z"/>
			<node id="12" bc="z"/>
			<node id="13" bc="z"/>
			<node id="14" bc="z"/>
			<node id="15" bc="z"/>
			<node id="16" bc="z"/>
			<node id="17" bc="z"/>
			<node id="18" bc="z"/>
			<node id="19" bc="z"/>
			<node id="20" bc="z"/>
<!-- ... 2293 like lines cut -->
		</fix>
	</Boundary>
	<Loads>
		<traction>
			<tri3 id="1" lc="1" tx="0" ty="1" tz="0">    23,  2105,  2106</tri3>
			<tri3 id="2" lc="1" tx="0" ty="1" tz="0">  2119,  1483,  1484</tri3>
			<tri3 id="3" lc="1" tx="0" ty="1" tz="0">  2101,  1389,  1388</tri3>
			<tri3 id="4" lc="1" tx="0" ty="1" tz="0">  1432,  1088,  1433</tri3>
			<tri3 id="5" lc="1" tx="0" ty="1" tz="0">  1297,  1296,  1433</tri3>
			<tri3 id="6" lc="1" tx="0" ty="1" tz="0">  1453,  1088,  1452</tri3>
			<tri3 id="7" lc="1" tx="0" ty="1" tz="0">  1340,  1339,  2119</tri3>
			<tri3 id="8" lc="1" tx="0" ty="1" tz="0">  1389,  1453,  1388</tri3>
			<tri3 id="9" lc="1" tx="0" ty="1" tz="0">  1297,  2066,  1296</tri3>
			<tri3 id="10" lc="1" tx="0" ty="1" tz="0">  1453,  1089,  1088</tri3>
			<tri3 id="11" lc="1" tx="0" ty="1" tz="0">  1433,  1296,  1432</tri3>
			<tri3 id="12" lc="1" tx="0" ty="1" tz="0">  1433,  1088,  1089</tri3>
			<tri3 id="13" lc="1" tx="0" ty="1" tz="0">     2,  2066,     6</tri3>
			<tri3 id="14" lc="1" tx="0" ty="1" tz="0">  1452,  1388,  1453</tri3>
			<tri3 id="15" lc="1" tx="0" ty="1" tz="0">  1388,  2102,  2101</tri3>
			<tri3 id="16" lc="1" tx="0" ty="1" tz="0">  2102,    23,  2101</tri3>
			<tri3 id="17" lc="1" tx="0" ty="1" tz="0">    24,  2105,    23</tri3>
			<tri3 id="18" lc="1" tx="0" ty="1" tz="0">  1483,  2119,  2120</tri3>
			<tri3 id="19" lc="1" tx="0" ty="1" tz="0">  2105,  1468,  2106</tri3>
			<tri3 id="20" lc="1" tx="0" ty="1" tz="0">  2118,     3,  2117</tri3>
<!-- ... 12 like lines cut -->
		</traction>
	</Loads>
	<LoadData>
		<loadcurve id="1" type="smooth">
			<loadpoint>0,0</loadpoint>
			<loadpoint>1,50</loadpoint>
		</loadcurve>
	</LoadData>
	<Output>
		<plotfile type="febio">
			<var type="displacement"/>
			<var type="stress"/>
		</plotfile>
        <logfile>
          <element_data data="Ey">3726</element_data>
        </logfile>		
	</Output>
</febio_spec>
