<?xml version="1.0" encoding="ISO-8859-1"?>
<!--
Problem Description:
	Cantilever beam problem with unstructured nodally integrated tets.  A shear
	traction of 2000 units is applied to the free end.
Main Features:
	Nodally integrated tet.
Secondary Features:
	
Materials:
	Mooney-Rivlin
Degrees of Freedom: 549
Results:
	Steps Completed: 38
	Equilibrium Iterations: 366
	Right Hand Evaluations: 478
	Siffness Reformations: 366
	Other:
		The maximum total displacement is 8.4 units at time t=1.
 
Comments:
	
-->
<febio_spec version="1.2">
	<Module type="solid"/>
	<Control>
		<title>Beam w/Nodally Integrated Tet</title>
		<time_steps>50</time_steps>
		<step_size>0.02</step_size>
		<max_refs>50</max_refs>
	<!-- Set max_ups to zero to use Full-Newton method instead of BFGS method -->
		<max_ups>0</max_ups>
		<dtol>0.001</dtol>
		<etol>0.01</etol>
		<rtol>0</rtol>
		<lstol>0.9</lstol>
		<time_stepper>
			<dtmin>0.01</dtmin>
			<dtmax>0.1</dtmax>
			<max_retries>5</max_retries>
			<opt_iter>10</opt_iter>
		</time_stepper>
		<integration>
			<rule elem="tet4" type="UT4">
				<alpha>0.02</alpha>
	<!-- Iso stab = 0 = section 4 (deviatoric only), = 1 = section 5 (isochoric too) -->
				<iso_stab>1</iso_stab>
			</rule>
		</integration>
	</Control>
	<Material>
		<material id="1" name="Material 1" type="Mooney-Rivlin">
			<c1>167000</c1>
			<c2>0</c2>
			<k>1.6667e+08</k>
		</material>
	</Material>
	<Geometry>
		<Nodes>
			<node id="1">-8.0000000e+000,-1.0000000e+000, 0.0000000e+000</node>
			<node id="2">-8.0000000e+000,-1.0000000e+000, 2.0000000e+000</node>
			<node id="3">-8.0000000e+000, 1.0000000e+000, 0.0000000e+000</node>
			<node id="4">-8.0000000e+000, 1.0000000e+000, 2.0000000e+000</node>
			<node id="5">-6.0000000e+000,-1.0000000e+000, 0.0000000e+000</node>
			<node id="6">-6.0000000e+000,-1.0000000e+000, 2.0000000e+000</node>
			<node id="7">-6.0000000e+000, 1.0000000e+000, 0.0000000e+000</node>
			<node id="8">-6.0000000e+000, 1.0000000e+000, 2.0000000e+000</node>
			<node id="9">-4.0000000e+000,-1.0000000e+000, 0.0000000e+000</node>
			<node id="10">-4.0000000e+000,-1.0000000e+000, 2.0000000e+000</node>
			<node id="11">-4.0000000e+000, 1.0000000e+000, 0.0000000e+000</node>
			<node id="12">-4.0000000e+000, 1.0000000e+000, 2.0000000e+000</node>
			<node id="13">-2.0000000e+000,-1.0000000e+000, 0.0000000e+000</node>
			<node id="14">-2.0000000e+000,-1.0000000e+000, 2.0000000e+000</node>
			<node id="15">-2.0000000e+000, 1.0000000e+000, 0.0000000e+000</node>
			<node id="16">-2.0000000e+000, 1.0000000e+000, 2.0000000e+000</node>
			<node id="17"> 0.0000000e+000,-1.0000000e+000, 0.0000000e+000</node>
			<node id="18"> 0.0000000e+000,-1.0000000e+000, 2.0000000e+000</node>
			<node id="19"> 0.0000000e+000, 1.0000000e+000, 0.0000000e+000</node>
			<node id="20"> 0.0000000e+000, 1.0000000e+000, 2.0000000e+000</node>
<!-- ... 174 like lines cut -->
		</Nodes>
		<Elements>
			<tet4 id="1" mat="1">    78,   117,    32,   137</tet4>
			<tet4 id="2" mat="1">    90,   169,    53,   172</tet4>
			<tet4 id="3" mat="1">    35,    96,    64,   118</tet4>
			<tet4 id="4" mat="1">    72,   126,   125,   189</tet4>
			<tet4 id="5" mat="1">    90,   169,    88,   194</tet4>
			<tet4 id="6" mat="1">     1,   116,    47,   165</tet4>
			<tet4 id="7" mat="1">    23,    75,    39,    76</tet4>
			<tet4 id="8" mat="1">    58,   133,    20,   134</tet4>
			<tet4 id="9" mat="1">    79,   119,    29,   179</tet4>
			<tet4 id="10" mat="1">    77,   127,    44,   145</tet4>
			<tet4 id="11" mat="1">    27,   108,    39,   109</tet4>
			<tet4 id="12" mat="1">   184,   190,   185,   194</tet4>
			<tet4 id="13" mat="1">   106,   132,   107,   154</tet4>
			<tet4 id="14" mat="1">    82,   115,     3,   116</tet4>
			<tet4 id="15" mat="1">    30,   119,    79,   179</tet4>
			<tet4 id="16" mat="1">    20,   142,    87,   190</tet4>
			<tet4 id="17" mat="1">   127,   147,   145,   149</tet4>
			<tet4 id="18" mat="1">   127,   128,    26,   154</tet4>
			<tet4 id="19" mat="1">    37,    73,    22,    74</tet4>
			<tet4 id="20" mat="1">    31,    78,    43,    80</tet4>
<!-- ... 492 like lines cut -->
		</Elements>
	</Geometry>
	<Boundary>
		<fix>
			<node id="1" bc="xyz"/>
			<node id="2" bc="xyz"/>
			<node id="3" bc="xyz"/>
			<node id="4" bc="xyz"/>
			<node id="47" bc="xyz"/>
			<node id="48" bc="xyz"/>
			<node id="81" bc="xyz"/>
			<node id="82" bc="xyz"/>
			<node id="116" bc="xyz"/>
			<node id="187" bc="xyz"/>
			<node id="188" bc="xyz"/>
		</fix>
	</Boundary>
	<Loads>
		<traction>
			<tri3 id="1" lc="1" tx="0" ty="0" tz="-2000">    35,    64,    96</tri3>
			<tri3 id="2" lc="1" tx="0" ty="0" tz="-2000">    93,    35,    96</tri3>
			<tri3 id="3" lc="1" tx="0" ty="0" tz="-2000">    36,    91,    96</tri3>
			<tri3 id="4" lc="1" tx="0" ty="0" tz="-2000">    91,    34,    96</tri3>
			<tri3 id="5" lc="1" tx="0" ty="0" tz="-2000">    64,    36,    96</tri3>
			<tri3 id="6" lc="1" tx="0" ty="0" tz="-2000">    33,    93,    96</tri3>
			<tri3 id="7" lc="1" tx="0" ty="0" tz="-2000">    34,    61,    96</tri3>
			<tri3 id="8" lc="1" tx="0" ty="0" tz="-2000">    61,    33,    96</tri3>
		</traction>
	</Loads>
	<LoadData>
		<loadcurve id="1" type="smooth">
			<loadpoint>0,0</loadpoint>
			<loadpoint>1,1</loadpoint>
		</loadcurve>
	</LoadData>
	<Output>
		<plotfile type="febio"></plotfile>
        <logfile>
          <element_data data="Ey">213</element_data>
        </logfile>		
	</Output>
</febio_spec>
