<?xml version="1.0" encoding="ISO-8859-1"?>
<!-- 
Problem Description:
One-dimensional steady-state electrophoresis and electro-osmosis of a triphasic material.  To examine the phenomena of electrophoresis and electroosmosis, consider a tissue described by a triphasic material with ions Na+ and Cl- and a negatively charged solid matrix. The tissue (thickness h = 1 mm) is located between an upstream and a downstream bath. In these baths, due to electroneutrality and t

Main Features:
	Formulating boundary conditions to prescribe a known external electric potential
Secondary Features:
	Steady-state triphasic analysis
Materials:
	Triphasic
	Neo-Hookean
	Constant Isotropic Permeability
	Constant Osmotic Coefficient
	Constant Isotropic Diffusivity
	Constant Solubility
Degrees of Freedom: 652
Results:
	Steps Completed: 4
	Equilibrium Iterations: 16
	Right Hand Evaluations: 20
	Siffness Reformations: 16
	Other:
		The peak electric current density is 8.1e-6 A/mm^2 at t=2.
		The peak solvent flux is 1.5e-4 mm/s at t=2.
 
Comments:

-->	
<febio_spec version="1.2">
	<Globals>
		<Constants>
			<T>293</T>
			<R>8.314e-06</R>
			<Fc>9.65e-05</Fc>
		</Constants>
		<Solutes>
			<solute id="1" name="Na+">
				<charge_number>1</charge_number>
			</solute>
			<solute id="2" name="Cl-">
				<charge_number>-1</charge_number>
			</solute>
		</Solutes>
	</Globals>
	<Material>
		<material id="1" name="Triphasic" type="triphasic">
			<phi0>0.2</phi0>
			<fixed_charge_density lc="1">-200</fixed_charge_density>
			<solid type="neo-Hookean">
				<density>1</density>
				<E>1</E>
				<v>0</v>
			</solid>
			<permeability type="perm-const-iso">
				<perm>0.001</perm>
			</permeability>
			<osmotic_coefficient type="osm-coef-const">
				<osmcoef>1</osmcoef>
			</osmotic_coefficient>
			<solute sol="1">
				<diffusivity type="diff-const-iso">
					<free_diff>0.0005</free_diff>
					<diff>0.0005</diff>
				</diffusivity>
				<solubility type="solub-const">
					<solub>1</solub>
				</solubility>
			</solute>
			<solute sol="2">
				<diffusivity type="diff-const-iso">
					<free_diff>0.0008</free_diff>
					<diff>0.0008</diff>
				</diffusivity>
				<solubility type="solub-const">
					<solub>1</solub>
				</solubility>
			</solute>
		</material>
	</Material>
	<Geometry>
		<Nodes>
			<node id="1"> -5.0000000e-01, -5.0000000e-01,  0.0000000e+00</node>
			<node id="2"> -5.0000000e-01, -5.0000000e-01,  2.6782653e-03</node>
			<node id="3"> -5.0000000e-01, -5.0000000e-01,  5.8921838e-03</node>
			<node id="4"> -5.0000000e-01, -5.0000000e-01,  9.7488859e-03</node>
			<node id="5"> -5.0000000e-01, -5.0000000e-01,  1.4376928e-02</node>
			<node id="6"> -5.0000000e-01, -5.0000000e-01,  1.9930579e-02</node>
			<node id="7"> -5.0000000e-01, -5.0000000e-01,  2.6594961e-02</node>
			<node id="8"> -5.0000000e-01, -5.0000000e-01,  3.4592218e-02</node>
			<node id="9"> -5.0000000e-01, -5.0000000e-01,  4.4188927e-02</node>
			<node id="10"> -5.0000000e-01, -5.0000000e-01,  5.5704978e-02</node>
			<node id="11"> -5.0000000e-01, -5.0000000e-01,  6.9524239e-02</node>
			<node id="12"> -5.0000000e-01, -5.0000000e-01,  8.6107352e-02</node>
			<node id="13"> -5.0000000e-01, -5.0000000e-01,  1.0600709e-01</node>
			<node id="14"> -5.0000000e-01, -5.0000000e-01,  1.2988677e-01</node>
			<node id="15"> -5.0000000e-01, -5.0000000e-01,  1.5854239e-01</node>
			<node id="16"> -5.0000000e-01, -5.0000000e-01,  1.9292913e-01</node>
			<node id="17"> -5.0000000e-01, -5.0000000e-01,  2.3419323e-01</node>
			<node id="18"> -5.0000000e-01, -5.0000000e-01,  2.8371014e-01</node>
			<node id="19"> -5.0000000e-01, -5.0000000e-01,  3.4313043e-01</node>
			<node id="20"> -5.0000000e-01, -5.0000000e-01,  4.1443478e-01</node>
<!-- ... 144 like lines cut -->
		</Nodes>
		<Elements>
			<hex8 id="1" mat="1">     1,    83,   124,    42,     2,    84,   125,    43</hex8>
			<hex8 id="2" mat="1">     2,    84,   125,    43,     3,    85,   126,    44</hex8>
			<hex8 id="3" mat="1">     3,    85,   126,    44,     4,    86,   127,    45</hex8>
			<hex8 id="4" mat="1">     4,    86,   127,    45,     5,    87,   128,    46</hex8>
			<hex8 id="5" mat="1">     5,    87,   128,    46,     6,    88,   129,    47</hex8>
			<hex8 id="6" mat="1">     6,    88,   129,    47,     7,    89,   130,    48</hex8>
			<hex8 id="7" mat="1">     7,    89,   130,    48,     8,    90,   131,    49</hex8>
			<hex8 id="8" mat="1">     8,    90,   131,    49,     9,    91,   132,    50</hex8>
			<hex8 id="9" mat="1">     9,    91,   132,    50,    10,    92,   133,    51</hex8>
			<hex8 id="10" mat="1">    10,    92,   133,    51,    11,    93,   134,    52</hex8>
			<hex8 id="11" mat="1">    11,    93,   134,    52,    12,    94,   135,    53</hex8>
			<hex8 id="12" mat="1">    12,    94,   135,    53,    13,    95,   136,    54</hex8>
			<hex8 id="13" mat="1">    13,    95,   136,    54,    14,    96,   137,    55</hex8>
			<hex8 id="14" mat="1">    14,    96,   137,    55,    15,    97,   138,    56</hex8>
			<hex8 id="15" mat="1">    15,    97,   138,    56,    16,    98,   139,    57</hex8>
			<hex8 id="16" mat="1">    16,    98,   139,    57,    17,    99,   140,    58</hex8>
			<hex8 id="17" mat="1">    17,    99,   140,    58,    18,   100,   141,    59</hex8>
			<hex8 id="18" mat="1">    18,   100,   141,    59,    19,   101,   142,    60</hex8>
			<hex8 id="19" mat="1">    19,   101,   142,    60,    20,   102,   143,    61</hex8>
			<hex8 id="20" mat="1">    20,   102,   143,    61,    21,   103,   144,    62</hex8>
<!-- ... 20 like lines cut -->
		</Elements>
	</Geometry>
	<Boundary>
		<fix>
			<node id="1" bc="x"/>
			<node id="2" bc="x"/>
			<node id="3" bc="x"/>
			<node id="4" bc="x"/>
			<node id="5" bc="x"/>
			<node id="6" bc="x"/>
			<node id="7" bc="x"/>
			<node id="8" bc="x"/>
			<node id="9" bc="x"/>
			<node id="10" bc="x"/>
			<node id="11" bc="x"/>
			<node id="12" bc="x"/>
			<node id="13" bc="x"/>
			<node id="14" bc="x"/>
			<node id="15" bc="x"/>
			<node id="16" bc="x"/>
			<node id="17" bc="x"/>
			<node id="18" bc="x"/>
			<node id="19" bc="x"/>
			<node id="20" bc="x"/>
<!-- ... 308 like lines cut -->
		</fix>
		<fix>
			<node id="1" bc="y"/>
			<node id="2" bc="y"/>
			<node id="3" bc="y"/>
			<node id="4" bc="y"/>
			<node id="5" bc="y"/>
			<node id="6" bc="y"/>
			<node id="7" bc="y"/>
			<node id="8" bc="y"/>
			<node id="9" bc="y"/>
			<node id="10" bc="y"/>
			<node id="11" bc="y"/>
			<node id="12" bc="y"/>
			<node id="13" bc="y"/>
			<node id="14" bc="y"/>
			<node id="15" bc="y"/>
			<node id="16" bc="y"/>
			<node id="17" bc="y"/>
			<node id="18" bc="y"/>
			<node id="19" bc="y"/>
			<node id="20" bc="y"/>
<!-- ... 308 like lines cut -->
		</fix>
		<fix>
			<node id="41" bc="z"/>
			<node id="82" bc="z"/>
			<node id="123" bc="z"/>
			<node id="164" bc="z"/>
		</fix>
		<prescribe>
			<node id="1" bc="c1" lc="2">150</node>
			<node id="42" bc="c1" lc="2">150</node>
			<node id="83" bc="c1" lc="2">150</node>
			<node id="124" bc="c1" lc="2">150</node>
		</prescribe>
		<prescribe>
			<node id="41" bc="c1" lc="3">150</node>
			<node id="82" bc="c1" lc="3">150</node>
			<node id="123" bc="c1" lc="3">150</node>
			<node id="164" bc="c1" lc="3">150</node>
		</prescribe>
		<prescribe>
			<node id="1" bc="p" lc="4">1</node>
			<node id="42" bc="p" lc="4">1</node>
			<node id="83" bc="p" lc="4">1</node>
			<node id="124" bc="p" lc="4">1</node>
		</prescribe>
		<prescribe>
			<node id="41" bc="p" lc="5">1</node>
			<node id="82" bc="p" lc="5">1</node>
			<node id="123" bc="p" lc="5">1</node>
			<node id="164" bc="p" lc="5">1</node>
		</prescribe>
		<prescribe>
			<node id="1" bc="c2" lc="6">150</node>
			<node id="42" bc="c2" lc="6">150</node>
			<node id="83" bc="c2" lc="6">150</node>
			<node id="124" bc="c2" lc="6">150</node>
		</prescribe>
		<prescribe>
			<node id="41" bc="c2" lc="7">150</node>
			<node id="82" bc="c2" lc="7">150</node>
			<node id="123" bc="c2" lc="7">150</node>
			<node id="164" bc="c2" lc="7">150</node>
		</prescribe>
	</Boundary>
	<Initial>
		<concentration sol="1">
			<node id="1">150</node>
			<node id="2">150</node>
			<node id="3">150</node>
			<node id="4">150</node>
			<node id="5">150</node>
			<node id="6">150</node>
			<node id="7">150</node>
			<node id="8">150</node>
			<node id="9">150</node>
			<node id="10">150</node>
			<node id="11">150</node>
			<node id="12">150</node>
			<node id="13">150</node>
			<node id="14">150</node>
			<node id="15">150</node>
			<node id="16">150</node>
			<node id="17">150</node>
			<node id="18">150</node>
			<node id="19">150</node>
			<node id="20">150</node>
<!-- ... 144 like lines cut -->
		</concentration>
		<concentration sol="2">
			<node id="1">150</node>
			<node id="2">150</node>
			<node id="3">150</node>
			<node id="4">150</node>
			<node id="5">150</node>
			<node id="6">150</node>
			<node id="7">150</node>
			<node id="8">150</node>
			<node id="9">150</node>
			<node id="10">150</node>
			<node id="11">150</node>
			<node id="12">150</node>
			<node id="13">150</node>
			<node id="14">150</node>
			<node id="15">150</node>
			<node id="16">150</node>
			<node id="17">150</node>
			<node id="18">150</node>
			<node id="19">150</node>
			<node id="20">150</node>
<!-- ... 144 like lines cut -->
		</concentration>
		<fluid_pressure>
			<node id="1">-0.730801</node>
			<node id="2">-0.730801</node>
			<node id="3">-0.730801</node>
			<node id="4">-0.730801</node>
			<node id="5">-0.730801</node>
			<node id="6">-0.730801</node>
			<node id="7">-0.730801</node>
			<node id="8">-0.730801</node>
			<node id="9">-0.730801</node>
			<node id="10">-0.730801</node>
			<node id="11">-0.730801</node>
			<node id="12">-0.730801</node>
			<node id="13">-0.730801</node>
			<node id="14">-0.730801</node>
			<node id="15">-0.730801</node>
			<node id="16">-0.730801</node>
			<node id="17">-0.730801</node>
			<node id="18">-0.730801</node>
			<node id="19">-0.730801</node>
			<node id="20">-0.730801</node>
<!-- ... 144 like lines cut -->
		</fluid_pressure>
	</Initial>
	<LoadData>
		<loadcurve id="1" type="linear">
			<loadpoint>0,0</loadpoint>
			<loadpoint>1,-200</loadpoint>
		</loadcurve>
		<loadcurve id="2" type="linear">
			<loadpoint>0,1</loadpoint>
			<loadpoint>1,1</loadpoint>
			<loadpoint>2,1.486078676</loadpoint>
		</loadcurve>
		<loadcurve id="3" type="step">
			<loadpoint>0,0</loadpoint>
			<loadpoint>1,1</loadpoint>
		</loadcurve>
		<loadcurve id="4" type="step">
			<loadpoint>0,0</loadpoint>
			<loadpoint>1,-0.7308006</loadpoint>
		</loadcurve>
		<loadcurve id="5" type="step">
			<loadpoint>0,0</loadpoint>
			<loadpoint>1,-0.7308006</loadpoint>
		</loadcurve>
		<loadcurve id="6" type="linear">
			<loadpoint>0,1</loadpoint>
			<loadpoint>1,1</loadpoint>
			<loadpoint>2,0.672911883</loadpoint>
		</loadcurve>
		<loadcurve id="7" type="step">
			<loadpoint>0,0</loadpoint>
			<loadpoint>1,1</loadpoint>
		</loadcurve>
	</LoadData>
	<Output>
		<plotfile type="febio">
			<var type="current density"/>
			<var type="displacement"/>
			<var type="effective fluid pressure"/>
			<var type="effective solute 1 concentration"/>
			<var type="effective solute 2 concentration"/>
			<var type="electric potential"/>
			<var type="fixed charge density"/>
			<var type="fluid flux"/>
			<var type="fluid pressure"/>
			<var type="relative volume"/>
			<var type="solute 1 concentration"/>
			<var type="solute 2 concentration"/>
			<var type="solute 1 flux"/>
			<var type="solute 2 flux"/>
			<var type="stress"/>
		</plotfile>
        <logfile>
          <element_data data="sy">12</element_data>
        </logfile>		
	</Output>
	<Step>
		<Module type="solute"/>
		<Control>
			<time_steps>4</time_steps>
			<step_size>0.25</step_size>
			<max_refs>15</max_refs>
			<max_ups>0</max_ups>
			<dtol>0.001</dtol>
			<etol>0.01</etol>
			<rtol>0</rtol>
			<ptol>0.01</ptol>
			<ctol>0.01</ctol>
			<lstol>0.9</lstol>
			<time_stepper>
				<dtmin>0.01</dtmin>
				<dtmax>0.25</dtmax>
				<max_retries>5</max_retries>
				<opt_iter>10</opt_iter>
			</time_stepper>
			<analysis type="steady-state"/>
			<symmetric_biphasic>0</symmetric_biphasic>
		</Control>
	</Step>
	<Step>
		<Module type="solute"/>
		<Control>
			<time_steps>4</time_steps>
			<step_size>0.25</step_size>
			<max_refs>15</max_refs>
			<max_ups>0</max_ups>
			<dtol>0.001</dtol>
			<etol>0.01</etol>
			<rtol>0</rtol>
			<ptol>0.01</ptol>
			<ctol>0.01</ctol>
			<lstol>0.9</lstol>
			<time_stepper>
				<dtmin>0.01</dtmin>
				<dtmax>0.25</dtmax>
				<max_retries>5</max_retries>
				<opt_iter>10</opt_iter>
			</time_stepper>
			<analysis type="steady-state"/>
			<symmetric_biphasic>0</symmetric_biphasic>
		</Control>
	</Step>
</febio_spec>
