<?xml version="1.0" encoding="ISO-8859-1"?>
<!--
Problem Description:
	A 20x5x5 element block is constrained in x,y,z on the left end nodes and in y,z
	on the right end nodes which have a prescribed x-displacement of 1 unit at time t=1.
Main Features:
	Tutorial
Secondary Features:
	
Materials:
	Mooney-Rivlin
Degrees of Freedom: 2088
Results:
	Steps Completed: 10
	Equilibrium Iterations: 29
	Right Hand Evaluations: 39
	Siffness Reformations: 10
	Other:
		The sides of the block contract in the y and z directions a maximum of
		0.034 units at time t=1.
Comments:
	This is tutorial 1 in the PreView manual.
-->
<febio_spec version="1.2">
	<Control>
		<title>Tutorial 1</title>
		<time_steps>10</time_steps>
		<step_size>0.1</step_size>
		<max_refs>15</max_refs>
		<max_ups>10</max_ups>
		<dtol>0.001</dtol>
		<etol>0.01</etol>
		<rtol>0</rtol>
		<lstol>0.9</lstol>
		<pressure_stiffness>1</pressure_stiffness>
		<time_stepper>
			<dtmin>0.01</dtmin>
			<dtmax>0.1</dtmax>
			<max_retries>5</max_retries>
			<opt_iter>10</opt_iter>
		</time_stepper>
		<plot_level>PLOT_DEFAULT</plot_level>
	</Control>
	<Material>
		<material id="1" name="Material 1" type="Mooney-Rivlin">
			<c1>20</c1>
			<c2>0</c2>
			<k>100</k>
		</material>
	</Material>
	<Geometry>
		<Nodes>
			<node id="1"> -2.0000000e+00, -5.0000000e-01,  0.0000000e+00</node>
			<node id="2"> -2.0000000e+00, -5.0000000e-01,  2.0000000e-01</node>
			<node id="3"> -2.0000000e+00, -5.0000000e-01,  4.0000000e-01</node>
			<node id="4"> -2.0000000e+00, -5.0000000e-01,  6.0000000e-01</node>
			<node id="5"> -2.0000000e+00, -5.0000000e-01,  8.0000000e-01</node>
			<node id="6"> -2.0000000e+00, -5.0000000e-01,  1.0000000e+00</node>
			<node id="7"> -2.0000000e+00, -3.0000000e-01,  0.0000000e+00</node>
			<node id="8"> -2.0000000e+00, -3.0000000e-01,  2.0000000e-01</node>
			<node id="9"> -2.0000000e+00, -3.0000000e-01,  4.0000000e-01</node>
			<node id="10"> -2.0000000e+00, -3.0000000e-01,  6.0000000e-01</node>
			<node id="11"> -2.0000000e+00, -3.0000000e-01,  8.0000000e-01</node>
			<node id="12"> -2.0000000e+00, -3.0000000e-01,  1.0000000e+00</node>
			<node id="13"> -2.0000000e+00, -1.0000000e-01,  0.0000000e+00</node>
			<node id="14"> -2.0000000e+00, -1.0000000e-01,  2.0000000e-01</node>
			<node id="15"> -2.0000000e+00, -1.0000000e-01,  4.0000000e-01</node>
			<node id="16"> -2.0000000e+00, -1.0000000e-01,  6.0000000e-01</node>
			<node id="17"> -2.0000000e+00, -1.0000000e-01,  8.0000000e-01</node>
			<node id="18"> -2.0000000e+00, -1.0000000e-01,  1.0000000e+00</node>
			<node id="19"> -2.0000000e+00,  1.0000000e-01,  0.0000000e+00</node>
			<node id="20"> -2.0000000e+00,  1.0000000e-01,  2.0000000e-01</node>
<!-- ... 736 like lines cut -->
		</Nodes>
		<Elements>
			<hex8 id="1" mat="1">     1,    37,    43,     7,     2,    38,    44,     8</hex8>
			<hex8 id="2" mat="1">     2,    38,    44,     8,     3,    39,    45,     9</hex8>
			<hex8 id="3" mat="1">     3,    39,    45,     9,     4,    40,    46,    10</hex8>
			<hex8 id="4" mat="1">     4,    40,    46,    10,     5,    41,    47,    11</hex8>
			<hex8 id="5" mat="1">     5,    41,    47,    11,     6,    42,    48,    12</hex8>
			<hex8 id="6" mat="1">     7,    43,    49,    13,     8,    44,    50,    14</hex8>
			<hex8 id="7" mat="1">     8,    44,    50,    14,     9,    45,    51,    15</hex8>
			<hex8 id="8" mat="1">     9,    45,    51,    15,    10,    46,    52,    16</hex8>
			<hex8 id="9" mat="1">    10,    46,    52,    16,    11,    47,    53,    17</hex8>
			<hex8 id="10" mat="1">    11,    47,    53,    17,    12,    48,    54,    18</hex8>
			<hex8 id="11" mat="1">    13,    49,    55,    19,    14,    50,    56,    20</hex8>
			<hex8 id="12" mat="1">    14,    50,    56,    20,    15,    51,    57,    21</hex8>
			<hex8 id="13" mat="1">    15,    51,    57,    21,    16,    52,    58,    22</hex8>
			<hex8 id="14" mat="1">    16,    52,    58,    22,    17,    53,    59,    23</hex8>
			<hex8 id="15" mat="1">    17,    53,    59,    23,    18,    54,    60,    24</hex8>
			<hex8 id="16" mat="1">    19,    55,    61,    25,    20,    56,    62,    26</hex8>
			<hex8 id="17" mat="1">    20,    56,    62,    26,    21,    57,    63,    27</hex8>
			<hex8 id="18" mat="1">    21,    57,    63,    27,    22,    58,    64,    28</hex8>
			<hex8 id="19" mat="1">    22,    58,    64,    28,    23,    59,    65,    29</hex8>
			<hex8 id="20" mat="1">    23,    59,    65,    29,    24,    60,    66,    30</hex8>
<!-- ... 480 like lines cut -->
		</Elements>
	</Geometry>
	<Boundary>
		<fix>
			<node id="1" bc="xyz"></node>
			<node id="2" bc="xyz"></node>
			<node id="3" bc="xyz"></node>
			<node id="4" bc="xyz"></node>
			<node id="5" bc="xyz"></node>
			<node id="6" bc="xyz"></node>
			<node id="7" bc="xyz"></node>
			<node id="8" bc="xyz"></node>
			<node id="9" bc="xyz"></node>
			<node id="10" bc="xyz"></node>
			<node id="11" bc="xyz"></node>
			<node id="12" bc="xyz"></node>
			<node id="13" bc="xyz"></node>
			<node id="14" bc="xyz"></node>
			<node id="15" bc="xyz"></node>
			<node id="16" bc="xyz"></node>
			<node id="17" bc="xyz"></node>
			<node id="18" bc="xyz"></node>
			<node id="19" bc="xyz"></node>
			<node id="20" bc="xyz"></node>
<!-- ... 16 like lines cut -->
			<node id="721" bc="yz"></node>
			<node id="722" bc="yz"></node>
			<node id="723" bc="yz"></node>
			<node id="724" bc="yz"></node>
			<node id="725" bc="yz"></node>
			<node id="726" bc="yz"></node>
			<node id="727" bc="yz"></node>
			<node id="728" bc="yz"></node>
			<node id="729" bc="yz"></node>
			<node id="730" bc="yz"></node>
			<node id="731" bc="yz"></node>
			<node id="732" bc="yz"></node>
			<node id="733" bc="yz"></node>
			<node id="734" bc="yz"></node>
			<node id="735" bc="yz"></node>
			<node id="736" bc="yz"></node>
			<node id="737" bc="yz"></node>
			<node id="738" bc="yz"></node>
			<node id="739" bc="yz"></node>
			<node id="740" bc="yz"></node>
<!-- ... 16 like lines cut -->
		</fix>
		<prescribe>
			<node id="721" bc="x" lc="1">1</node>
			<node id="722" bc="x" lc="1">1</node>
			<node id="723" bc="x" lc="1">1</node>
			<node id="724" bc="x" lc="1">1</node>
			<node id="725" bc="x" lc="1">1</node>
			<node id="726" bc="x" lc="1">1</node>
			<node id="727" bc="x" lc="1">1</node>
			<node id="728" bc="x" lc="1">1</node>
			<node id="729" bc="x" lc="1">1</node>
			<node id="730" bc="x" lc="1">1</node>
			<node id="731" bc="x" lc="1">1</node>
			<node id="732" bc="x" lc="1">1</node>
			<node id="733" bc="x" lc="1">1</node>
			<node id="734" bc="x" lc="1">1</node>
			<node id="735" bc="x" lc="1">1</node>
			<node id="736" bc="x" lc="1">1</node>
			<node id="737" bc="x" lc="1">1</node>
			<node id="738" bc="x" lc="1">1</node>
			<node id="739" bc="x" lc="1">1</node>
			<node id="740" bc="x" lc="1">1</node>
<!-- ... 16 like lines cut -->
		</prescribe>
	</Boundary>
	<LoadData>
		<loadcurve id="1">
			<loadpoint>0,0</loadpoint>
			<loadpoint>1,1</loadpoint>
		</loadcurve>
	</LoadData>
	<Output>
		<plotfile type="febio"></plotfile>
        <logfile>
          <element_data data="Ez">240</element_data>
        </logfile>		
	</Output>
</febio_spec>
