<?xml version="1.0" encoding="ISO-8859-1"?>
<!--
Problem Description:
	1/4 symmetrical representation of the compression of a billet by a rigid wall
	with a z-displacement of 0.4 units at time t=1.
Main Features:
	Tutorial
	Rigid-wall Contact
Secondary Features:
	
Materials:
	Neo-Hookean
Degrees of Freedom: 2020
Results:
	Steps Completed: 11
	Equilibrium Iterations: 88
	Right Hand Evaluations: 103
	Siffness Reformations: 13
	Other:
		The billet has a maximum x-displacement of 0.685 at time t=1.
Comments:
	
-->
<febio_spec version="1.2">
	<Control>
		<title>Tutorial 3</title>
		<time_steps>10</time_steps>
		<step_size>0.1</step_size>
		<max_refs>15</max_refs>
		<max_ups>10</max_ups>
		<dtol>0.001</dtol>
		<etol>0.01</etol>
		<rtol>0</rtol>
		<lstol>0.9</lstol>
		<pressure_stiffness>1</pressure_stiffness>
		<time_stepper>
			<dtmin>0.01</dtmin>
			<dtmax>0.1</dtmax>
			<max_retries>5</max_retries>
			<opt_iter>10</opt_iter>
		</time_stepper>
		<plot_level>PLOT_DEFAULT</plot_level>
	</Control>
	<Material>
		<material id="1" name="Material 2" type="neo-Hookean">
			<E>1</E>
			<v>0.49</v>
		</material>
	</Material>
	<Geometry>
		<Nodes>
			<node id="1">  0.0000000e+00, -5.0000000e-01, -5.0000000e-02</node>
			<node id="2">  5.0000000e-02, -5.0000000e-01, -5.0000000e-02</node>
			<node id="3">  1.0000000e-01, -5.0000000e-01, -5.0000000e-02</node>
			<node id="4">  1.5000000e-01, -5.0000000e-01, -5.0000000e-02</node>
			<node id="5">  2.0000000e-01, -5.0000000e-01, -5.0000000e-02</node>
			<node id="6">  2.5000000e-01, -5.0000000e-01, -5.0000000e-02</node>
			<node id="7">  3.0000000e-01, -5.0000000e-01, -5.0000000e-02</node>
			<node id="8">  3.5000000e-01, -5.0000000e-01, -5.0000000e-02</node>
			<node id="9">  4.0000000e-01, -5.0000000e-01, -5.0000000e-02</node>
			<node id="10">  4.5000000e-01, -5.0000000e-01, -5.0000000e-02</node>
			<node id="11">  5.0000000e-01, -5.0000000e-01, -5.0000000e-02</node>
			<node id="12">  0.0000000e+00, -4.5000000e-01, -5.0000000e-02</node>
			<node id="13">  5.0000000e-02, -4.5000000e-01, -5.0000000e-02</node>
			<node id="14">  1.0000000e-01, -4.5000000e-01, -5.0000000e-02</node>
			<node id="15">  1.5000000e-01, -4.5000000e-01, -5.0000000e-02</node>
			<node id="16">  2.0000000e-01, -4.5000000e-01, -5.0000000e-02</node>
			<node id="17">  2.5000000e-01, -4.5000000e-01, -5.0000000e-02</node>
			<node id="18">  3.0000000e-01, -4.5000000e-01, -5.0000000e-02</node>
			<node id="19">  3.5000000e-01, -4.5000000e-01, -5.0000000e-02</node>
			<node id="20">  4.0000000e-01, -4.5000000e-01, -5.0000000e-02</node>
<!-- ... 1062 like lines cut -->
		</Nodes>
		<Elements>
			<hex8 id="1" mat="1">     1,     2,    13,    12,   122,   123,   134,   133</hex8>
			<hex8 id="2" mat="1">     2,     3,    14,    13,   123,   124,   135,   134</hex8>
			<hex8 id="3" mat="1">     3,     4,    15,    14,   124,   125,   136,   135</hex8>
			<hex8 id="4" mat="1">     4,     5,    16,    15,   125,   126,   137,   136</hex8>
			<hex8 id="5" mat="1">     5,     6,    17,    16,   126,   127,   138,   137</hex8>
			<hex8 id="6" mat="1">     6,     7,    18,    17,   127,   128,   139,   138</hex8>
			<hex8 id="7" mat="1">     7,     8,    19,    18,   128,   129,   140,   139</hex8>
			<hex8 id="8" mat="1">     8,     9,    20,    19,   129,   130,   141,   140</hex8>
			<hex8 id="9" mat="1">     9,    10,    21,    20,   130,   131,   142,   141</hex8>
			<hex8 id="10" mat="1">    10,    11,    22,    21,   131,   132,   143,   142</hex8>
			<hex8 id="11" mat="1">    12,    13,    24,    23,   133,   134,   145,   144</hex8>
			<hex8 id="12" mat="1">    13,    14,    25,    24,   134,   135,   146,   145</hex8>
			<hex8 id="13" mat="1">    14,    15,    26,    25,   135,   136,   147,   146</hex8>
			<hex8 id="14" mat="1">    15,    16,    27,    26,   136,   137,   148,   147</hex8>
			<hex8 id="15" mat="1">    16,    17,    28,    27,   137,   138,   149,   148</hex8>
			<hex8 id="16" mat="1">    17,    18,    29,    28,   138,   139,   150,   149</hex8>
			<hex8 id="17" mat="1">    18,    19,    30,    29,   139,   140,   151,   150</hex8>
			<hex8 id="18" mat="1">    19,    20,    31,    30,   140,   141,   152,   151</hex8>
			<hex8 id="19" mat="1">    20,    21,    32,    31,   141,   142,   153,   152</hex8>
			<hex8 id="20" mat="1">    21,    22,    33,    32,   142,   143,   154,   153</hex8>
<!-- ... 480 like lines cut -->
		</Elements>
	</Geometry>
	<Boundary>
		<fix>
			<node id="1" bc="xz"></node>
			<node id="2" bc="z"></node>
			<node id="3" bc="z"></node>
			<node id="4" bc="z"></node>
			<node id="5" bc="z"></node>
			<node id="6" bc="z"></node>
			<node id="7" bc="z"></node>
			<node id="8" bc="z"></node>
			<node id="9" bc="z"></node>
			<node id="10" bc="z"></node>
			<node id="11" bc="z"></node>
			<node id="12" bc="xz"></node>
			<node id="13" bc="z"></node>
			<node id="14" bc="z"></node>
			<node id="15" bc="z"></node>
			<node id="16" bc="z"></node>
			<node id="17" bc="z"></node>
			<node id="18" bc="z"></node>
			<node id="19" bc="z"></node>
			<node id="20" bc="z"></node>
			<node id="21" bc="z"></node>
			<node id="22" bc="z"></node>
			<node id="23" bc="xz"></node>
			<node id="24" bc="z"></node>
			<node id="25" bc="z"></node>
			<node id="26" bc="z"></node>
			<node id="27" bc="z"></node>
			<node id="28" bc="z"></node>
			<node id="29" bc="z"></node>
			<node id="30" bc="z"></node>
			<node id="31" bc="z"></node>
			<node id="32" bc="z"></node>
			<node id="33" bc="z"></node>
			<node id="34" bc="xz"></node>
			<node id="35" bc="z"></node>
			<node id="36" bc="z"></node>
			<node id="37" bc="z"></node>
			<node id="38" bc="z"></node>
			<node id="39" bc="z"></node>
			<node id="40" bc="z"></node>
			<node id="41" bc="z"></node>
			<node id="42" bc="z"></node>
			<node id="43" bc="z"></node>
			<node id="44" bc="z"></node>
			<node id="45" bc="xz"></node>
			<node id="46" bc="z"></node>
			<node id="47" bc="z"></node>
			<node id="48" bc="z"></node>
			<node id="49" bc="z"></node>
			<node id="50" bc="z"></node>
			<node id="51" bc="z"></node>
			<node id="52" bc="z"></node>
			<node id="53" bc="z"></node>
			<node id="54" bc="z"></node>
			<node id="55" bc="z"></node>
			<node id="56" bc="xz"></node>
			<node id="57" bc="z"></node>
			<node id="58" bc="z"></node>
			<node id="59" bc="z"></node>
			<node id="60" bc="z"></node>
			<node id="61" bc="z"></node>
			<node id="62" bc="z"></node>
			<node id="63" bc="z"></node>
			<node id="64" bc="z"></node>
			<node id="65" bc="z"></node>
			<node id="66" bc="z"></node>
			<node id="67" bc="xz"></node>
			<node id="68" bc="z"></node>
			<node id="69" bc="z"></node>
			<node id="70" bc="z"></node>
			<node id="71" bc="z"></node>
			<node id="72" bc="z"></node>
			<node id="73" bc="z"></node>
			<node id="74" bc="z"></node>
			<node id="75" bc="z"></node>
			<node id="76" bc="z"></node>
			<node id="77" bc="z"></node>
			<node id="78" bc="xz"></node>
			<node id="79" bc="z"></node>
			<node id="80" bc="z"></node>
			<node id="81" bc="z"></node>
			<node id="82" bc="z"></node>
			<node id="83" bc="z"></node>
			<node id="84" bc="z"></node>
			<node id="85" bc="z"></node>
			<node id="86" bc="z"></node>
			<node id="87" bc="z"></node>
			<node id="88" bc="z"></node>
			<node id="89" bc="xz"></node>
			<node id="90" bc="z"></node>
			<node id="91" bc="z"></node>
			<node id="92" bc="z"></node>
			<node id="93" bc="z"></node>
			<node id="94" bc="z"></node>
			<node id="95" bc="z"></node>
			<node id="96" bc="z"></node>
			<node id="97" bc="z"></node>
			<node id="98" bc="z"></node>
			<node id="99" bc="z"></node>
			<node id="100" bc="xz"></node>
			<node id="101" bc="z"></node>
			<node id="102" bc="z"></node>
			<node id="103" bc="z"></node>
			<node id="104" bc="z"></node>
			<node id="105" bc="z"></node>
			<node id="106" bc="z"></node>
			<node id="107" bc="z"></node>
			<node id="108" bc="z"></node>
			<node id="109" bc="z"></node>
			<node id="110" bc="z"></node>
			<node id="111" bc="xyz"></node>
			<node id="112" bc="yz"></node>
			<node id="113" bc="yz"></node>
			<node id="114" bc="yz"></node>
			<node id="115" bc="yz"></node>
			<node id="116" bc="yz"></node>
			<node id="117" bc="yz"></node>
			<node id="118" bc="yz"></node>
			<node id="119" bc="yz"></node>
			<node id="120" bc="yz"></node>
			<node id="121" bc="yz"></node>
			<node id="122" bc="xz"></node>
			<node id="123" bc="z"></node>
			<node id="124" bc="z"></node>
			<node id="125" bc="z"></node>
			<node id="126" bc="z"></node>
			<node id="127" bc="z"></node>
			<node id="128" bc="z"></node>
			<node id="129" bc="z"></node>
			<node id="130" bc="z"></node>
			<node id="131" bc="z"></node>
			<node id="132" bc="z"></node>
			<node id="133" bc="xz"></node>
			<node id="134" bc="z"></node>
			<node id="135" bc="z"></node>
			<node id="136" bc="z"></node>
			<node id="137" bc="z"></node>
			<node id="138" bc="z"></node>
			<node id="139" bc="z"></node>
			<node id="140" bc="z"></node>
			<node id="141" bc="z"></node>
			<node id="142" bc="z"></node>
			<node id="143" bc="z"></node>
			<node id="144" bc="xz"></node>
			<node id="145" bc="z"></node>
			<node id="146" bc="z"></node>
			<node id="147" bc="z"></node>
			<node id="148" bc="z"></node>
			<node id="149" bc="z"></node>
			<node id="150" bc="z"></node>
			<node id="151" bc="z"></node>
			<node id="152" bc="z"></node>
			<node id="153" bc="z"></node>
			<node id="154" bc="z"></node>
			<node id="155" bc="xz"></node>
			<node id="156" bc="z"></node>
			<node id="157" bc="z"></node>
			<node id="158" bc="z"></node>
			<node id="159" bc="z"></node>
			<node id="160" bc="z"></node>
			<node id="161" bc="z"></node>
			<node id="162" bc="z"></node>
			<node id="163" bc="z"></node>
			<node id="164" bc="z"></node>
			<node id="165" bc="z"></node>
			<node id="166" bc="xz"></node>
			<node id="167" bc="z"></node>
			<node id="168" bc="z"></node>
			<node id="169" bc="z"></node>
			<node id="170" bc="z"></node>
			<node id="171" bc="z"></node>
			<node id="172" bc="z"></node>
			<node id="173" bc="z"></node>
			<node id="174" bc="z"></node>
			<node id="175" bc="z"></node>
			<node id="176" bc="z"></node>
			<node id="177" bc="xz"></node>
			<node id="178" bc="z"></node>
			<node id="179" bc="z"></node>
			<node id="180" bc="z"></node>
			<node id="181" bc="z"></node>
			<node id="182" bc="z"></node>
			<node id="183" bc="z"></node>
			<node id="184" bc="z"></node>
			<node id="185" bc="z"></node>
			<node id="186" bc="z"></node>
			<node id="187" bc="z"></node>
			<node id="188" bc="xz"></node>
			<node id="189" bc="z"></node>
			<node id="190" bc="z"></node>
			<node id="191" bc="z"></node>
			<node id="192" bc="z"></node>
			<node id="193" bc="z"></node>
			<node id="194" bc="z"></node>
			<node id="195" bc="z"></node>
			<node id="196" bc="z"></node>
			<node id="197" bc="z"></node>
			<node id="198" bc="z"></node>
			<node id="199" bc="xz"></node>
			<node id="200" bc="z"></node>
			<node id="201" bc="z"></node>
			<node id="202" bc="z"></node>
			<node id="203" bc="z"></node>
			<node id="204" bc="z"></node>
			<node id="205" bc="z"></node>
			<node id="206" bc="z"></node>
			<node id="207" bc="z"></node>
			<node id="208" bc="z"></node>
			<node id="209" bc="z"></node>
			<node id="210" bc="xz"></node>
			<node id="211" bc="z"></node>
			<node id="212" bc="z"></node>
			<node id="213" bc="z"></node>
			<node id="214" bc="z"></node>
			<node id="215" bc="z"></node>
			<node id="216" bc="z"></node>
			<node id="217" bc="z"></node>
			<node id="218" bc="z"></node>
			<node id="219" bc="z"></node>
			<node id="220" bc="z"></node>
			<node id="221" bc="xz"></node>
			<node id="222" bc="z"></node>
			<node id="223" bc="z"></node>
			<node id="224" bc="z"></node>
			<node id="225" bc="z"></node>
			<node id="226" bc="z"></node>
			<node id="227" bc="z"></node>
			<node id="228" bc="z"></node>
			<node id="229" bc="z"></node>
			<node id="230" bc="z"></node>
			<node id="231" bc="z"></node>
			<node id="232" bc="xyz"></node>
			<node id="233" bc="yz"></node>
			<node id="234" bc="yz"></node>
			<node id="235" bc="yz"></node>
			<node id="236" bc="yz"></node>
			<node id="237" bc="yz"></node>
			<node id="238" bc="yz"></node>
			<node id="239" bc="yz"></node>
			<node id="240" bc="yz"></node>
			<node id="241" bc="yz"></node>
			<node id="242" bc="yz"></node>
			<node id="243" bc="xz"></node>
			<node id="244" bc="z"></node>
			<node id="245" bc="z"></node>
			<node id="246" bc="z"></node>
			<node id="247" bc="z"></node>
			<node id="248" bc="z"></node>
			<node id="249" bc="z"></node>
			<node id="250" bc="z"></node>
			<node id="251" bc="z"></node>
			<node id="252" bc="z"></node>
			<node id="253" bc="z"></node>
			<node id="254" bc="z"></node>
			<node id="255" bc="z"></node>
			<node id="256" bc="z"></node>
			<node id="257" bc="z"></node>
			<node id="258" bc="z"></node>
			<node id="259" bc="z"></node>
			<node id="260" bc="z"></node>
			<node id="261" bc="z"></node>
			<node id="262" bc="z"></node>
			<node id="263" bc="yz"></node>
			<node id="264" bc="xz"></node>
			<node id="265" bc="z"></node>
			<node id="266" bc="z"></node>
			<node id="267" bc="z"></node>
			<node id="268" bc="z"></node>
			<node id="269" bc="z"></node>
			<node id="270" bc="z"></node>
			<node id="271" bc="z"></node>
			<node id="272" bc="z"></node>
			<node id="273" bc="z"></node>
			<node id="274" bc="z"></node>
			<node id="275" bc="z"></node>
			<node id="276" bc="z"></node>
			<node id="277" bc="z"></node>
			<node id="278" bc="z"></node>
			<node id="279" bc="z"></node>
			<node id="280" bc="z"></node>
			<node id="281" bc="z"></node>
			<node id="282" bc="z"></node>
			<node id="283" bc="z"></node>
			<node id="284" bc="yz"></node>
			<node id="285" bc="xz"></node>
			<node id="286" bc="z"></node>
			<node id="287" bc="z"></node>
			<node id="288" bc="z"></node>
			<node id="289" bc="z"></node>
			<node id="290" bc="z"></node>
			<node id="291" bc="z"></node>
			<node id="292" bc="z"></node>
			<node id="293" bc="z"></node>
			<node id="294" bc="z"></node>
			<node id="295" bc="z"></node>
			<node id="296" bc="z"></node>
			<node id="297" bc="z"></node>
			<node id="298" bc="z"></node>
			<node id="299" bc="z"></node>
			<node id="300" bc="z"></node>
			<node id="301" bc="z"></node>
			<node id="302" bc="z"></node>
			<node id="303" bc="z"></node>
			<node id="304" bc="z"></node>
			<node id="305" bc="yz"></node>
			<node id="306" bc="xz"></node>
			<node id="307" bc="z"></node>
			<node id="308" bc="z"></node>
			<node id="309" bc="z"></node>
			<node id="310" bc="z"></node>
			<node id="311" bc="z"></node>
			<node id="312" bc="z"></node>
			<node id="313" bc="z"></node>
			<node id="314" bc="z"></node>
			<node id="315" bc="z"></node>
			<node id="316" bc="z"></node>
			<node id="317" bc="z"></node>
			<node id="318" bc="z"></node>
			<node id="319" bc="z"></node>
			<node id="320" bc="z"></node>
			<node id="321" bc="z"></node>
			<node id="322" bc="z"></node>
			<node id="323" bc="z"></node>
			<node id="324" bc="z"></node>
			<node id="325" bc="z"></node>
			<node id="326" bc="yz"></node>
			<node id="327" bc="xz"></node>
			<node id="328" bc="z"></node>
			<node id="329" bc="z"></node>
			<node id="330" bc="z"></node>
			<node id="331" bc="z"></node>
			<node id="332" bc="z"></node>
			<node id="333" bc="z"></node>
			<node id="334" bc="z"></node>
			<node id="335" bc="z"></node>
			<node id="336" bc="z"></node>
			<node id="337" bc="z"></node>
			<node id="338" bc="z"></node>
			<node id="339" bc="z"></node>
			<node id="340" bc="z"></node>
			<node id="341" bc="z"></node>
			<node id="342" bc="z"></node>
			<node id="343" bc="z"></node>
			<node id="344" bc="z"></node>
			<node id="345" bc="z"></node>
			<node id="346" bc="z"></node>
			<node id="347" bc="yz"></node>
			<node id="348" bc="xz"></node>
			<node id="349" bc="z"></node>
			<node id="350" bc="z"></node>
			<node id="351" bc="z"></node>
			<node id="352" bc="z"></node>
			<node id="353" bc="z"></node>
			<node id="354" bc="z"></node>
			<node id="355" bc="z"></node>
			<node id="356" bc="z"></node>
			<node id="357" bc="z"></node>
			<node id="358" bc="z"></node>
			<node id="359" bc="z"></node>
			<node id="360" bc="z"></node>
			<node id="361" bc="z"></node>
			<node id="362" bc="z"></node>
			<node id="363" bc="z"></node>
			<node id="364" bc="z"></node>
			<node id="365" bc="z"></node>
			<node id="366" bc="z"></node>
			<node id="367" bc="z"></node>
			<node id="368" bc="yz"></node>
			<node id="369" bc="xz"></node>
			<node id="370" bc="z"></node>
			<node id="371" bc="z"></node>
			<node id="372" bc="z"></node>
			<node id="373" bc="z"></node>
			<node id="374" bc="z"></node>
			<node id="375" bc="z"></node>
			<node id="376" bc="z"></node>
			<node id="377" bc="z"></node>
			<node id="378" bc="z"></node>
			<node id="379" bc="z"></node>
			<node id="380" bc="z"></node>
			<node id="381" bc="z"></node>
			<node id="382" bc="z"></node>
			<node id="383" bc="z"></node>
			<node id="384" bc="z"></node>
			<node id="385" bc="z"></node>
			<node id="386" bc="z"></node>
			<node id="387" bc="z"></node>
			<node id="388" bc="z"></node>
			<node id="389" bc="yz"></node>
			<node id="390" bc="xz"></node>
			<node id="391" bc="z"></node>
			<node id="392" bc="z"></node>
			<node id="393" bc="z"></node>
			<node id="394" bc="z"></node>
			<node id="395" bc="z"></node>
			<node id="396" bc="z"></node>
			<node id="397" bc="z"></node>
			<node id="398" bc="z"></node>
			<node id="399" bc="z"></node>
			<node id="400" bc="z"></node>
			<node id="401" bc="z"></node>
			<node id="402" bc="z"></node>
			<node id="403" bc="z"></node>
			<node id="404" bc="z"></node>
			<node id="405" bc="z"></node>
			<node id="406" bc="z"></node>
			<node id="407" bc="z"></node>
			<node id="408" bc="z"></node>
			<node id="409" bc="z"></node>
			<node id="410" bc="yz"></node>
			<node id="411" bc="xz"></node>
			<node id="412" bc="z"></node>
			<node id="413" bc="z"></node>
			<node id="414" bc="z"></node>
			<node id="415" bc="z"></node>
			<node id="416" bc="z"></node>
			<node id="417" bc="z"></node>
			<node id="418" bc="z"></node>
			<node id="419" bc="z"></node>
			<node id="420" bc="z"></node>
			<node id="421" bc="z"></node>
			<node id="422" bc="z"></node>
			<node id="423" bc="z"></node>
			<node id="424" bc="z"></node>
			<node id="425" bc="z"></node>
			<node id="426" bc="z"></node>
			<node id="427" bc="z"></node>
			<node id="428" bc="z"></node>
			<node id="429" bc="z"></node>
			<node id="430" bc="z"></node>
			<node id="431" bc="yz"></node>
			<node id="432" bc="xz"></node>
			<node id="433" bc="z"></node>
			<node id="434" bc="z"></node>
			<node id="435" bc="z"></node>
			<node id="436" bc="z"></node>
			<node id="437" bc="z"></node>
			<node id="438" bc="z"></node>
			<node id="439" bc="z"></node>
			<node id="440" bc="z"></node>
			<node id="441" bc="z"></node>
			<node id="442" bc="z"></node>
			<node id="443" bc="z"></node>
			<node id="444" bc="z"></node>
			<node id="445" bc="z"></node>
			<node id="446" bc="z"></node>
			<node id="447" bc="z"></node>
			<node id="448" bc="z"></node>
			<node id="449" bc="z"></node>
			<node id="450" bc="z"></node>
			<node id="451" bc="z"></node>
			<node id="452" bc="yz"></node>
			<node id="453" bc="xz"></node>
			<node id="454" bc="z"></node>
			<node id="455" bc="z"></node>
			<node id="456" bc="z"></node>
			<node id="457" bc="z"></node>
			<node id="458" bc="z"></node>
			<node id="459" bc="z"></node>
			<node id="460" bc="z"></node>
			<node id="461" bc="z"></node>
			<node id="462" bc="z"></node>
			<node id="463" bc="z"></node>
			<node id="464" bc="z"></node>
			<node id="465" bc="z"></node>
			<node id="466" bc="z"></node>
			<node id="467" bc="z"></node>
			<node id="468" bc="z"></node>
			<node id="469" bc="z"></node>
			<node id="470" bc="z"></node>
			<node id="471" bc="z"></node>
			<node id="472" bc="z"></node>
			<node id="473" bc="yz"></node>
			<node id="474" bc="xz"></node>
			<node id="475" bc="z"></node>
			<node id="476" bc="z"></node>
			<node id="477" bc="z"></node>
			<node id="478" bc="z"></node>
			<node id="479" bc="z"></node>
			<node id="480" bc="z"></node>
			<node id="481" bc="z"></node>
			<node id="482" bc="z"></node>
			<node id="483" bc="z"></node>
			<node id="484" bc="z"></node>
			<node id="485" bc="z"></node>
			<node id="486" bc="z"></node>
			<node id="487" bc="z"></node>
			<node id="488" bc="z"></node>
			<node id="489" bc="z"></node>
			<node id="490" bc="z"></node>
			<node id="491" bc="z"></node>
			<node id="492" bc="z"></node>
			<node id="493" bc="z"></node>
			<node id="494" bc="yz"></node>
			<node id="495" bc="xz"></node>
			<node id="496" bc="z"></node>
			<node id="497" bc="z"></node>
			<node id="498" bc="z"></node>
			<node id="499" bc="z"></node>
			<node id="500" bc="z"></node>
			<node id="501" bc="z"></node>
			<node id="502" bc="z"></node>
			<node id="503" bc="z"></node>
			<node id="504" bc="z"></node>
			<node id="505" bc="z"></node>
			<node id="506" bc="z"></node>
			<node id="507" bc="z"></node>
			<node id="508" bc="z"></node>
			<node id="509" bc="z"></node>
			<node id="510" bc="z"></node>
			<node id="511" bc="z"></node>
			<node id="512" bc="z"></node>
			<node id="513" bc="z"></node>
			<node id="514" bc="z"></node>
			<node id="515" bc="yz"></node>
			<node id="516" bc="xz"></node>
			<node id="517" bc="z"></node>
			<node id="518" bc="z"></node>
			<node id="519" bc="z"></node>
			<node id="520" bc="z"></node>
			<node id="521" bc="z"></node>
			<node id="522" bc="z"></node>
			<node id="523" bc="z"></node>
			<node id="524" bc="z"></node>
			<node id="525" bc="z"></node>
			<node id="526" bc="z"></node>
			<node id="527" bc="z"></node>
			<node id="528" bc="z"></node>
			<node id="529" bc="z"></node>
			<node id="530" bc="z"></node>
			<node id="531" bc="z"></node>
			<node id="532" bc="z"></node>
			<node id="533" bc="z"></node>
			<node id="534" bc="z"></node>
			<node id="535" bc="z"></node>
			<node id="536" bc="yz"></node>
			<node id="537" bc="xz"></node>
			<node id="538" bc="z"></node>
			<node id="539" bc="z"></node>
			<node id="540" bc="z"></node>
			<node id="541" bc="z"></node>
			<node id="542" bc="z"></node>
			<node id="543" bc="z"></node>
			<node id="544" bc="z"></node>
			<node id="545" bc="z"></node>
			<node id="546" bc="z"></node>
			<node id="547" bc="z"></node>
			<node id="548" bc="z"></node>
			<node id="549" bc="z"></node>
			<node id="550" bc="z"></node>
			<node id="551" bc="z"></node>
			<node id="552" bc="z"></node>
			<node id="553" bc="z"></node>
			<node id="554" bc="z"></node>
			<node id="555" bc="z"></node>
			<node id="556" bc="z"></node>
			<node id="557" bc="yz"></node>
			<node id="558" bc="xz"></node>
			<node id="559" bc="z"></node>
			<node id="560" bc="z"></node>
			<node id="561" bc="z"></node>
			<node id="562" bc="z"></node>
			<node id="563" bc="z"></node>
			<node id="564" bc="z"></node>
			<node id="565" bc="z"></node>
			<node id="566" bc="z"></node>
			<node id="567" bc="z"></node>
			<node id="568" bc="z"></node>
			<node id="569" bc="z"></node>
			<node id="570" bc="z"></node>
			<node id="571" bc="z"></node>
			<node id="572" bc="z"></node>
			<node id="573" bc="z"></node>
			<node id="574" bc="z"></node>
			<node id="575" bc="z"></node>
			<node id="576" bc="z"></node>
			<node id="577" bc="z"></node>
			<node id="578" bc="yz"></node>
			<node id="579" bc="xz"></node>
			<node id="580" bc="z"></node>
			<node id="581" bc="z"></node>
			<node id="582" bc="z"></node>
			<node id="583" bc="z"></node>
			<node id="584" bc="z"></node>
			<node id="585" bc="z"></node>
			<node id="586" bc="z"></node>
			<node id="587" bc="z"></node>
			<node id="588" bc="z"></node>
			<node id="589" bc="z"></node>
			<node id="590" bc="z"></node>
			<node id="591" bc="z"></node>
			<node id="592" bc="z"></node>
			<node id="593" bc="z"></node>
			<node id="594" bc="z"></node>
			<node id="595" bc="z"></node>
			<node id="596" bc="z"></node>
			<node id="597" bc="z"></node>
			<node id="598" bc="z"></node>
			<node id="599" bc="yz"></node>
			<node id="600" bc="xz"></node>
			<node id="601" bc="z"></node>
			<node id="602" bc="z"></node>
			<node id="603" bc="z"></node>
			<node id="604" bc="z"></node>
			<node id="605" bc="z"></node>
			<node id="606" bc="z"></node>
			<node id="607" bc="z"></node>
			<node id="608" bc="z"></node>
			<node id="609" bc="z"></node>
			<node id="610" bc="z"></node>
			<node id="611" bc="z"></node>
			<node id="612" bc="z"></node>
			<node id="613" bc="z"></node>
			<node id="614" bc="z"></node>
			<node id="615" bc="z"></node>
			<node id="616" bc="z"></node>
			<node id="617" bc="z"></node>
			<node id="618" bc="z"></node>
			<node id="619" bc="z"></node>
			<node id="620" bc="yz"></node>
			<node id="621" bc="xz"></node>
			<node id="622" bc="z"></node>
			<node id="623" bc="z"></node>
			<node id="624" bc="z"></node>
			<node id="625" bc="z"></node>
			<node id="626" bc="z"></node>
			<node id="627" bc="z"></node>
			<node id="628" bc="z"></node>
			<node id="629" bc="z"></node>
			<node id="630" bc="z"></node>
			<node id="631" bc="z"></node>
			<node id="632" bc="z"></node>
			<node id="633" bc="z"></node>
			<node id="634" bc="z"></node>
			<node id="635" bc="z"></node>
			<node id="636" bc="z"></node>
			<node id="637" bc="z"></node>
			<node id="638" bc="z"></node>
			<node id="639" bc="z"></node>
			<node id="640" bc="z"></node>
			<node id="641" bc="yz"></node>
			<node id="642" bc="xz"></node>
			<node id="643" bc="z"></node>
			<node id="644" bc="z"></node>
			<node id="645" bc="z"></node>
			<node id="646" bc="z"></node>
			<node id="647" bc="z"></node>
			<node id="648" bc="z"></node>
			<node id="649" bc="z"></node>
			<node id="650" bc="z"></node>
			<node id="651" bc="z"></node>
			<node id="652" bc="z"></node>
			<node id="653" bc="z"></node>
			<node id="654" bc="z"></node>
			<node id="655" bc="z"></node>
			<node id="656" bc="z"></node>
			<node id="657" bc="z"></node>
			<node id="658" bc="z"></node>
			<node id="659" bc="z"></node>
			<node id="660" bc="z"></node>
			<node id="661" bc="z"></node>
			<node id="662" bc="yz"></node>
			<node id="663" bc="xz"></node>
			<node id="664" bc="z"></node>
			<node id="665" bc="z"></node>
			<node id="666" bc="z"></node>
			<node id="667" bc="z"></node>
			<node id="668" bc="z"></node>
			<node id="669" bc="z"></node>
			<node id="670" bc="z"></node>
			<node id="671" bc="z"></node>
			<node id="672" bc="z"></node>
			<node id="673" bc="z"></node>
			<node id="674" bc="z"></node>
			<node id="675" bc="z"></node>
			<node id="676" bc="z"></node>
			<node id="677" bc="z"></node>
			<node id="678" bc="z"></node>
			<node id="679" bc="z"></node>
			<node id="680" bc="z"></node>
			<node id="681" bc="z"></node>
			<node id="682" bc="z"></node>
			<node id="683" bc="yz"></node>
			<node id="684" bc="xz"></node>
			<node id="685" bc="z"></node>
			<node id="686" bc="z"></node>
			<node id="687" bc="z"></node>
			<node id="688" bc="z"></node>
			<node id="689" bc="z"></node>
			<node id="690" bc="z"></node>
			<node id="691" bc="z"></node>
			<node id="692" bc="z"></node>
			<node id="693" bc="z"></node>
			<node id="694" bc="z"></node>
			<node id="695" bc="z"></node>
			<node id="696" bc="z"></node>
			<node id="697" bc="z"></node>
			<node id="698" bc="z"></node>
			<node id="699" bc="z"></node>
			<node id="700" bc="z"></node>
			<node id="701" bc="z"></node>
			<node id="702" bc="z"></node>
			<node id="703" bc="z"></node>
			<node id="704" bc="yz"></node>
			<node id="705" bc="xz"></node>
			<node id="706" bc="z"></node>
			<node id="707" bc="z"></node>
			<node id="708" bc="z"></node>
			<node id="709" bc="z"></node>
			<node id="710" bc="z"></node>
			<node id="711" bc="z"></node>
			<node id="712" bc="z"></node>
			<node id="713" bc="z"></node>
			<node id="714" bc="z"></node>
			<node id="715" bc="z"></node>
			<node id="716" bc="z"></node>
			<node id="717" bc="z"></node>
			<node id="718" bc="z"></node>
			<node id="719" bc="z"></node>
			<node id="720" bc="z"></node>
			<node id="721" bc="z"></node>
			<node id="722" bc="z"></node>
			<node id="723" bc="z"></node>
			<node id="724" bc="z"></node>
			<node id="725" bc="yz"></node>
			<node id="726" bc="xz"></node>
			<node id="727" bc="z"></node>
			<node id="728" bc="z"></node>
			<node id="729" bc="z"></node>
			<node id="730" bc="z"></node>
			<node id="731" bc="z"></node>
			<node id="732" bc="z"></node>
			<node id="733" bc="z"></node>
			<node id="734" bc="z"></node>
			<node id="735" bc="z"></node>
			<node id="736" bc="z"></node>
			<node id="737" bc="z"></node>
			<node id="738" bc="z"></node>
			<node id="739" bc="z"></node>
			<node id="740" bc="z"></node>
			<node id="741" bc="z"></node>
			<node id="742" bc="z"></node>
			<node id="743" bc="z"></node>
			<node id="744" bc="z"></node>
			<node id="745" bc="z"></node>
			<node id="746" bc="yz"></node>
			<node id="747" bc="xz"></node>
			<node id="748" bc="z"></node>
			<node id="749" bc="z"></node>
			<node id="750" bc="z"></node>
			<node id="751" bc="z"></node>
			<node id="752" bc="z"></node>
			<node id="753" bc="z"></node>
			<node id="754" bc="z"></node>
			<node id="755" bc="z"></node>
			<node id="756" bc="z"></node>
			<node id="757" bc="z"></node>
			<node id="758" bc="z"></node>
			<node id="759" bc="z"></node>
			<node id="760" bc="z"></node>
			<node id="761" bc="z"></node>
			<node id="762" bc="z"></node>
			<node id="763" bc="z"></node>
			<node id="764" bc="z"></node>
			<node id="765" bc="z"></node>
			<node id="766" bc="z"></node>
			<node id="767" bc="yz"></node>
			<node id="768" bc="xz"></node>
			<node id="769" bc="z"></node>
			<node id="770" bc="z"></node>
			<node id="771" bc="z"></node>
			<node id="772" bc="z"></node>
			<node id="773" bc="z"></node>
			<node id="774" bc="z"></node>
			<node id="775" bc="z"></node>
			<node id="776" bc="z"></node>
			<node id="777" bc="z"></node>
			<node id="778" bc="z"></node>
			<node id="779" bc="z"></node>
			<node id="780" bc="z"></node>
			<node id="781" bc="z"></node>
			<node id="782" bc="z"></node>
			<node id="783" bc="z"></node>
			<node id="784" bc="z"></node>
			<node id="785" bc="z"></node>
			<node id="786" bc="z"></node>
			<node id="787" bc="z"></node>
			<node id="788" bc="yz"></node>
			<node id="789" bc="xz"></node>
			<node id="790" bc="z"></node>
			<node id="791" bc="z"></node>
			<node id="792" bc="z"></node>
			<node id="793" bc="z"></node>
			<node id="794" bc="z"></node>
			<node id="795" bc="z"></node>
			<node id="796" bc="z"></node>
			<node id="797" bc="z"></node>
			<node id="798" bc="z"></node>
			<node id="799" bc="z"></node>
			<node id="800" bc="z"></node>
			<node id="801" bc="z"></node>
			<node id="802" bc="z"></node>
			<node id="803" bc="z"></node>
			<node id="804" bc="z"></node>
			<node id="805" bc="z"></node>
			<node id="806" bc="z"></node>
			<node id="807" bc="z"></node>
			<node id="808" bc="z"></node>
			<node id="809" bc="yz"></node>
			<node id="810" bc="xz"></node>
			<node id="811" bc="z"></node>
			<node id="812" bc="z"></node>
			<node id="813" bc="z"></node>
			<node id="814" bc="z"></node>
			<node id="815" bc="z"></node>
			<node id="816" bc="z"></node>
			<node id="817" bc="z"></node>
			<node id="818" bc="z"></node>
			<node id="819" bc="z"></node>
			<node id="820" bc="z"></node>
			<node id="821" bc="z"></node>
			<node id="822" bc="z"></node>
			<node id="823" bc="z"></node>
			<node id="824" bc="z"></node>
			<node id="825" bc="z"></node>
			<node id="826" bc="z"></node>
			<node id="827" bc="z"></node>
			<node id="828" bc="z"></node>
			<node id="829" bc="z"></node>
			<node id="830" bc="yz"></node>
			<node id="831" bc="xz"></node>
			<node id="832" bc="z"></node>
			<node id="833" bc="z"></node>
			<node id="834" bc="z"></node>
			<node id="835" bc="z"></node>
			<node id="836" bc="z"></node>
			<node id="837" bc="z"></node>
			<node id="838" bc="z"></node>
			<node id="839" bc="z"></node>
			<node id="840" bc="z"></node>
			<node id="841" bc="z"></node>
			<node id="842" bc="z"></node>
			<node id="843" bc="z"></node>
			<node id="844" bc="z"></node>
			<node id="845" bc="z"></node>
			<node id="846" bc="z"></node>
			<node id="847" bc="z"></node>
			<node id="848" bc="z"></node>
			<node id="849" bc="z"></node>
			<node id="850" bc="z"></node>
			<node id="851" bc="yz"></node>
			<node id="852" bc="xz"></node>
			<node id="853" bc="z"></node>
			<node id="854" bc="z"></node>
			<node id="855" bc="z"></node>
			<node id="856" bc="z"></node>
			<node id="857" bc="z"></node>
			<node id="858" bc="z"></node>
			<node id="859" bc="z"></node>
			<node id="860" bc="z"></node>
			<node id="861" bc="z"></node>
			<node id="862" bc="z"></node>
			<node id="863" bc="z"></node>
			<node id="864" bc="z"></node>
			<node id="865" bc="z"></node>
			<node id="866" bc="z"></node>
			<node id="867" bc="z"></node>
			<node id="868" bc="z"></node>
			<node id="869" bc="z"></node>
			<node id="870" bc="z"></node>
			<node id="871" bc="z"></node>
			<node id="872" bc="yz"></node>
			<node id="873" bc="xz"></node>
			<node id="874" bc="z"></node>
			<node id="875" bc="z"></node>
			<node id="876" bc="z"></node>
			<node id="877" bc="z"></node>
			<node id="878" bc="z"></node>
			<node id="879" bc="z"></node>
			<node id="880" bc="z"></node>
			<node id="881" bc="z"></node>
			<node id="882" bc="z"></node>
			<node id="883" bc="z"></node>
			<node id="884" bc="z"></node>
			<node id="885" bc="z"></node>
			<node id="886" bc="z"></node>
			<node id="887" bc="z"></node>
			<node id="888" bc="z"></node>
			<node id="889" bc="z"></node>
			<node id="890" bc="z"></node>
			<node id="891" bc="z"></node>
			<node id="892" bc="z"></node>
			<node id="893" bc="yz"></node>
			<node id="894" bc="xz"></node>
			<node id="895" bc="z"></node>
			<node id="896" bc="z"></node>
			<node id="897" bc="z"></node>
			<node id="898" bc="z"></node>
			<node id="899" bc="z"></node>
			<node id="900" bc="z"></node>
			<node id="901" bc="z"></node>
			<node id="902" bc="z"></node>
			<node id="903" bc="z"></node>
			<node id="904" bc="z"></node>
			<node id="905" bc="z"></node>
			<node id="906" bc="z"></node>
			<node id="907" bc="z"></node>
			<node id="908" bc="z"></node>
			<node id="909" bc="z"></node>
			<node id="910" bc="z"></node>
			<node id="911" bc="z"></node>
			<node id="912" bc="z"></node>
			<node id="913" bc="z"></node>
			<node id="914" bc="yz"></node>
			<node id="915" bc="xz"></node>
			<node id="916" bc="z"></node>
			<node id="917" bc="z"></node>
			<node id="918" bc="z"></node>
			<node id="919" bc="z"></node>
			<node id="920" bc="z"></node>
			<node id="921" bc="z"></node>
			<node id="922" bc="z"></node>
			<node id="923" bc="z"></node>
			<node id="924" bc="z"></node>
			<node id="925" bc="z"></node>
			<node id="926" bc="z"></node>
			<node id="927" bc="z"></node>
			<node id="928" bc="z"></node>
			<node id="929" bc="z"></node>
			<node id="930" bc="z"></node>
			<node id="931" bc="z"></node>
			<node id="932" bc="z"></node>
			<node id="933" bc="z"></node>
			<node id="934" bc="z"></node>
			<node id="935" bc="yz"></node>
			<node id="936" bc="xz"></node>
			<node id="937" bc="z"></node>
			<node id="938" bc="z"></node>
			<node id="939" bc="z"></node>
			<node id="940" bc="z"></node>
			<node id="941" bc="z"></node>
			<node id="942" bc="z"></node>
			<node id="943" bc="z"></node>
			<node id="944" bc="z"></node>
			<node id="945" bc="z"></node>
			<node id="946" bc="z"></node>
			<node id="947" bc="z"></node>
			<node id="948" bc="z"></node>
			<node id="949" bc="z"></node>
			<node id="950" bc="z"></node>
			<node id="951" bc="z"></node>
			<node id="952" bc="z"></node>
			<node id="953" bc="z"></node>
			<node id="954" bc="z"></node>
			<node id="955" bc="z"></node>
			<node id="956" bc="yz"></node>
			<node id="957" bc="xz"></node>
			<node id="958" bc="z"></node>
			<node id="959" bc="z"></node>
			<node id="960" bc="z"></node>
			<node id="961" bc="z"></node>
			<node id="962" bc="z"></node>
			<node id="963" bc="z"></node>
			<node id="964" bc="z"></node>
			<node id="965" bc="z"></node>
			<node id="966" bc="z"></node>
			<node id="967" bc="z"></node>
			<node id="968" bc="z"></node>
			<node id="969" bc="z"></node>
			<node id="970" bc="z"></node>
			<node id="971" bc="z"></node>
			<node id="972" bc="z"></node>
			<node id="973" bc="z"></node>
			<node id="974" bc="z"></node>
			<node id="975" bc="z"></node>
			<node id="976" bc="z"></node>
			<node id="977" bc="yz"></node>
			<node id="978" bc="xz"></node>
			<node id="979" bc="z"></node>
			<node id="980" bc="z"></node>
			<node id="981" bc="z"></node>
			<node id="982" bc="z"></node>
			<node id="983" bc="z"></node>
			<node id="984" bc="z"></node>
			<node id="985" bc="z"></node>
			<node id="986" bc="z"></node>
			<node id="987" bc="z"></node>
			<node id="988" bc="z"></node>
			<node id="989" bc="z"></node>
			<node id="990" bc="z"></node>
			<node id="991" bc="z"></node>
			<node id="992" bc="z"></node>
			<node id="993" bc="z"></node>
			<node id="994" bc="z"></node>
			<node id="995" bc="z"></node>
			<node id="996" bc="z"></node>
			<node id="997" bc="z"></node>
			<node id="998" bc="yz"></node>
			<node id="999" bc="xz"></node>
			<node id="1000" bc="z"></node>
			<node id="1001" bc="z"></node>
			<node id="1002" bc="z"></node>
			<node id="1003" bc="z"></node>
			<node id="1004" bc="z"></node>
			<node id="1005" bc="z"></node>
			<node id="1006" bc="z"></node>
			<node id="1007" bc="z"></node>
			<node id="1008" bc="z"></node>
			<node id="1009" bc="z"></node>
			<node id="1010" bc="z"></node>
			<node id="1011" bc="z"></node>
			<node id="1012" bc="z"></node>
			<node id="1013" bc="z"></node>
			<node id="1014" bc="z"></node>
			<node id="1015" bc="z"></node>
			<node id="1016" bc="z"></node>
			<node id="1017" bc="z"></node>
			<node id="1018" bc="z"></node>
			<node id="1019" bc="yz"></node>
			<node id="1020" bc="xz"></node>
			<node id="1021" bc="z"></node>
			<node id="1022" bc="z"></node>
			<node id="1023" bc="z"></node>
			<node id="1024" bc="z"></node>
			<node id="1025" bc="z"></node>
			<node id="1026" bc="z"></node>
			<node id="1027" bc="z"></node>
			<node id="1028" bc="z"></node>
			<node id="1029" bc="z"></node>
			<node id="1030" bc="z"></node>
			<node id="1031" bc="z"></node>
			<node id="1032" bc="z"></node>
			<node id="1033" bc="z"></node>
			<node id="1034" bc="z"></node>
			<node id="1035" bc="z"></node>
			<node id="1036" bc="z"></node>
			<node id="1037" bc="z"></node>
			<node id="1038" bc="z"></node>
			<node id="1039" bc="z"></node>
			<node id="1040" bc="yz"></node>
			<node id="1041" bc="xz"></node>
			<node id="1042" bc="xz"></node>
			<node id="1043" bc="xz"></node>
			<node id="1044" bc="xz"></node>
			<node id="1045" bc="xz"></node>
			<node id="1046" bc="xz"></node>
			<node id="1047" bc="xz"></node>
			<node id="1048" bc="xz"></node>
			<node id="1049" bc="xz"></node>
			<node id="1050" bc="xz"></node>
			<node id="1051" bc="xz"></node>
			<node id="1052" bc="z"></node>
			<node id="1053" bc="z"></node>
			<node id="1054" bc="z"></node>
			<node id="1055" bc="z"></node>
			<node id="1056" bc="z"></node>
			<node id="1057" bc="z"></node>
			<node id="1058" bc="z"></node>
			<node id="1059" bc="z"></node>
			<node id="1060" bc="z"></node>
			<node id="1061" bc="yz"></node>
			<node id="1062" bc="xz"></node>
			<node id="1063" bc="xz"></node>
			<node id="1064" bc="xz"></node>
			<node id="1065" bc="xz"></node>
			<node id="1066" bc="xz"></node>
			<node id="1067" bc="xz"></node>
			<node id="1068" bc="xz"></node>
			<node id="1069" bc="xz"></node>
			<node id="1070" bc="xz"></node>
			<node id="1071" bc="xz"></node>
			<node id="1072" bc="xz"></node>
			<node id="1073" bc="z"></node>
			<node id="1074" bc="z"></node>
			<node id="1075" bc="z"></node>
			<node id="1076" bc="z"></node>
			<node id="1077" bc="z"></node>
			<node id="1078" bc="z"></node>
			<node id="1079" bc="z"></node>
			<node id="1080" bc="z"></node>
			<node id="1081" bc="z"></node>
			<node id="1082" bc="yz"></node>
		</fix>
		<contact type="rigid_wall">
			<tolerance>0.01</tolerance>
			<penalty>1000</penalty>
			<plane lc="1">0,1,0,-1</plane>
			<surface>
				<quad4 id="1">  1041,  1042,  1063,  1062</quad4>
				<quad4 id="2">  1042,  1043,  1064,  1063</quad4>
				<quad4 id="3">  1043,  1044,  1065,  1064</quad4>
				<quad4 id="4">  1044,  1045,  1066,  1065</quad4>
				<quad4 id="5">  1045,  1046,  1067,  1066</quad4>
				<quad4 id="6">  1046,  1047,  1068,  1067</quad4>
				<quad4 id="7">  1047,  1048,  1069,  1068</quad4>
				<quad4 id="8">  1048,  1049,  1070,  1069</quad4>
				<quad4 id="9">  1049,  1050,  1071,  1070</quad4>
				<quad4 id="10">  1051,  1052,  1073,  1072</quad4>
				<quad4 id="11">  1050,  1051,  1072,  1071</quad4>
				<quad4 id="12">  1052,  1053,  1074,  1073</quad4>
				<quad4 id="13">  1053,  1054,  1075,  1074</quad4>
				<quad4 id="14">  1054,  1055,  1076,  1075</quad4>
				<quad4 id="15">  1055,  1056,  1077,  1076</quad4>
				<quad4 id="16">  1056,  1057,  1078,  1077</quad4>
				<quad4 id="17">  1057,  1058,  1079,  1078</quad4>
				<quad4 id="18">  1058,  1059,  1080,  1079</quad4>
				<quad4 id="19">  1059,  1060,  1081,  1080</quad4>
				<quad4 id="20">  1060,  1061,  1082,  1081</quad4>
			</surface>
		</contact>
	</Boundary>
	<LoadData>
		<loadcurve id="1">
			<loadpoint>0,0</loadpoint>
			<loadpoint>1,0.4</loadpoint>
		</loadcurve>
	</LoadData>
	<Output>
		<plotfile type="febio"></plotfile>
        <logfile>
          <element_data data="sy">480</element_data>
        </logfile>		
	</Output>
</febio_spec>
