<?xml version="1.0" encoding="ISO-8859-1"?>
<febio_spec version="2.0">
	<Globals>
		<Constants>
			<T>0</T>
			<R>0</R>
			<Fc>0</Fc>
		</Constants>
	</Globals>
	<Material>
		<material id="1" name="Material1" type="Mooney-Rivlin">
			<density>0.00000001</density>
			<c1>1</c1>
			<c2>1</c2>
			<k>0.48</k>
		</material>
	</Material>
	<Geometry>
		<Nodes>
			<node id="1">-5.0000000e+000,-5.0000000e-001, 0.0000000e+000</node>
			<node id="2">-5.0000000e+000,-5.0000000e-001, 1.0000000e-001</node>
			<node id="3">-5.0000000e+000,-5.0000000e-001, 2.0000000e-001</node>
			<node id="4">-5.0000000e+000,-5.0000000e-001, 3.0000000e-001</node>
			<node id="5">-5.0000000e+000,-5.0000000e-001, 4.0000000e-001</node>
			<node id="6">-5.0000000e+000,-5.0000000e-001, 5.0000000e-001</node>
			<node id="7">-5.0000000e+000,-5.0000000e-001, 6.0000000e-001</node>
			<node id="8">-5.0000000e+000,-5.0000000e-001, 7.0000000e-001</node>
			<node id="9">-5.0000000e+000,-5.0000000e-001, 8.0000000e-001</node>
			<node id="10">-5.0000000e+000,-5.0000000e-001, 9.0000000e-001</node>
			<node id="11">-5.0000000e+000,-5.0000000e-001, 1.0000000e+000</node>
			<node id="12">-5.0000000e+000,-4.0000000e-001, 0.0000000e+000</node>
			<node id="13">-5.0000000e+000,-4.0000000e-001, 1.0000000e-001</node>
			<node id="14">-5.0000000e+000,-4.0000000e-001, 2.0000000e-001</node>
			<node id="15">-5.0000000e+000,-4.0000000e-001, 3.0000000e-001</node>
			<node id="16">-5.0000000e+000,-4.0000000e-001, 4.0000000e-001</node>
			<node id="17">-5.0000000e+000,-4.0000000e-001, 5.0000000e-001</node>
			<node id="18">-5.0000000e+000,-4.0000000e-001, 6.0000000e-001</node>
			<node id="19">-5.0000000e+000,-4.0000000e-001, 7.0000000e-001</node>
			<node id="20">-5.0000000e+000,-4.0000000e-001, 8.0000000e-001</node>
<!-- ... 5062 like lines cut -->
		</Nodes>
		<Elements type="hex8" mat="1" elset="Part2">
			<elem id="1">     1,   122,   133,    12,     2,   123,   134,    13</elem>
			<elem id="2">     2,   123,   134,    13,     3,   124,   135,    14</elem>
			<elem id="3">     3,   124,   135,    14,     4,   125,   136,    15</elem>
			<elem id="4">     4,   125,   136,    15,     5,   126,   137,    16</elem>
			<elem id="5">     5,   126,   137,    16,     6,   127,   138,    17</elem>
			<elem id="6">     6,   127,   138,    17,     7,   128,   139,    18</elem>
			<elem id="7">     7,   128,   139,    18,     8,   129,   140,    19</elem>
			<elem id="8">     8,   129,   140,    19,     9,   130,   141,    20</elem>
			<elem id="9">     9,   130,   141,    20,    10,   131,   142,    21</elem>
			<elem id="10">    10,   131,   142,    21,    11,   132,   143,    22</elem>
			<elem id="11">    12,   133,   144,    23,    13,   134,   145,    24</elem>
			<elem id="12">    13,   134,   145,    24,    14,   135,   146,    25</elem>
			<elem id="13">    14,   135,   146,    25,    15,   136,   147,    26</elem>
			<elem id="14">    15,   136,   147,    26,    16,   137,   148,    27</elem>
			<elem id="15">    16,   137,   148,    27,    17,   138,   149,    28</elem>
			<elem id="16">    17,   138,   149,    28,    18,   139,   150,    29</elem>
			<elem id="17">    18,   139,   150,    29,    19,   140,   151,    30</elem>
			<elem id="18">    19,   140,   151,    30,    20,   141,   152,    31</elem>
			<elem id="19">    20,   141,   152,    31,    21,   142,   153,    32</elem>
			<elem id="20">    21,   142,   153,    32,    22,   143,   154,    33</elem>
<!-- ... 1980 like lines cut -->
		</Elements>
		<Elements type="hex8" mat="1" elset="Part4">
			<elem id="2001">  2542,  2663,  2674,  2553,  2543,  2664,  2675,  2554</elem>
			<elem id="2002">  2543,  2664,  2675,  2554,  2544,  2665,  2676,  2555</elem>
			<elem id="2003">  2544,  2665,  2676,  2555,  2545,  2666,  2677,  2556</elem>
			<elem id="2004">  2545,  2666,  2677,  2556,  2546,  2667,  2678,  2557</elem>
			<elem id="2005">  2546,  2667,  2678,  2557,  2547,  2668,  2679,  2558</elem>
			<elem id="2006">  2547,  2668,  2679,  2558,  2548,  2669,  2680,  2559</elem>
			<elem id="2007">  2548,  2669,  2680,  2559,  2549,  2670,  2681,  2560</elem>
			<elem id="2008">  2549,  2670,  2681,  2560,  2550,  2671,  2682,  2561</elem>
			<elem id="2009">  2550,  2671,  2682,  2561,  2551,  2672,  2683,  2562</elem>
			<elem id="2010">  2551,  2672,  2683,  2562,  2552,  2673,  2684,  2563</elem>
			<elem id="2011">  2553,  2674,  2685,  2564,  2554,  2675,  2686,  2565</elem>
			<elem id="2012">  2554,  2675,  2686,  2565,  2555,  2676,  2687,  2566</elem>
			<elem id="2013">  2555,  2676,  2687,  2566,  2556,  2677,  2688,  2567</elem>
			<elem id="2014">  2556,  2677,  2688,  2567,  2557,  2678,  2689,  2568</elem>
			<elem id="2015">  2557,  2678,  2689,  2568,  2558,  2679,  2690,  2569</elem>
			<elem id="2016">  2558,  2679,  2690,  2569,  2559,  2680,  2691,  2570</elem>
			<elem id="2017">  2559,  2680,  2691,  2570,  2560,  2681,  2692,  2571</elem>
			<elem id="2018">  2560,  2681,  2692,  2571,  2561,  2682,  2693,  2572</elem>
			<elem id="2019">  2561,  2682,  2693,  2572,  2562,  2683,  2694,  2573</elem>
			<elem id="2020">  2562,  2683,  2694,  2573,  2563,  2684,  2695,  2574</elem>
<!-- ... 1980 like lines cut -->
		</Elements>
	</Geometry>
	<LoadData>
		<loadcurve id="1" type="smooth">
			<point>0,0</point>
			<point>1,1</point>
		</loadcurve>
		<loadcurve id="2" type="smooth">
			<point>0,0</point>
			<point>1,1</point>
		</loadcurve>
	</LoadData>
	<Output>
		<plotfile type="febio">
			<var type="contact gap"/>
			<var type="contact pressure"/>
			<var type="contact traction"/>
			<var type="displacement"/>
			<var type="stress"/>
		</plotfile>
	</Output>
	<Step name="Step01">
		<Module type="solid"/>
		<Control>
			<time_steps>100</time_steps>
			<step_size>0.01</step_size>
			<max_refs>3500</max_refs>
			<max_ups>0</max_ups>
			<dtol>0.001</dtol>
			<etol>0.01</etol>
			<rtol>0</rtol>
			<lstol>0.9</lstol>
			<time_stepper>
				<dtmin>0.01</dtmin>
				<dtmax>0.1</dtmax>
				<max_retries>55</max_retries>
				<opt_iter>10</opt_iter>
			</time_stepper>
			<analysis type="static"/>
		</Control>
		<Boundary>
			<prescribe bc="x" lc="1">
				<node id="4962">10</node>
				<node id="4963">10</node>
				<node id="4964">10</node>
				<node id="4965">10</node>
				<node id="4966">10</node>
				<node id="4967">10</node>
				<node id="4968">10</node>
				<node id="4969">10</node>
				<node id="4970">10</node>
				<node id="4971">10</node>
				<node id="4972">10</node>
				<node id="4973">10</node>
				<node id="4974">10</node>
				<node id="4975">10</node>
				<node id="4976">10</node>
				<node id="4977">10</node>
				<node id="4978">10</node>
				<node id="4979">10</node>
				<node id="4980">10</node>
				<node id="4981">10</node>
<!-- ... 101 like lines cut -->
			</prescribe>
			<prescribe bc="x" lc="2">
				<node id="1">-10</node>
				<node id="2">-10</node>
				<node id="3">-10</node>
				<node id="4">-10</node>
				<node id="5">-10</node>
				<node id="6">-10</node>
				<node id="7">-10</node>
				<node id="8">-10</node>
				<node id="9">-10</node>
				<node id="10">-10</node>
				<node id="11">-10</node>
				<node id="12">-10</node>
				<node id="13">-10</node>
				<node id="14">-10</node>
				<node id="15">-10</node>
				<node id="16">-10</node>
				<node id="17">-10</node>
				<node id="18">-10</node>
				<node id="19">-10</node>
				<node id="20">-10</node>
<!-- ... 101 like lines cut -->
			</prescribe>
		</Boundary>
		<Contact>
			<contact type="facet-to-facet sliding" name="Sliding03">
				<laugon>0</laugon>
				<tolerance>0.2</tolerance>
				<penalty>8000</penalty>
				<two_pass>1</two_pass>
				<auto_penalty>0</auto_penalty>
				<fric_coeff>0</fric_coeff>
				<fric_penalty>0</fric_penalty>
				<search_tol>0.01</search_tol>
				<n_interf_strength>5</n_interf_strength>
			    <t_interf_strength>5</t_interf_strength>
			    <n_char_op>0.0001</n_char_op>
			    <t_char_op>0.0001</t_char_op>
				<minaug>0</minaug>
				<maxaug>10</maxaug>
				<gaptol>0</gaptol>
				<seg_up>0</seg_up>
				<surface type="master">
					<quad4 id="1">  2652,  2641,  2642,  2653</quad4>
					<quad4 id="2">  2653,  2642,  2643,  2654</quad4>
					<quad4 id="3">  2654,  2643,  2644,  2655</quad4>
					<quad4 id="4">  2655,  2644,  2645,  2656</quad4>
					<quad4 id="5">  2656,  2645,  2646,  2657</quad4>
					<quad4 id="6">  2657,  2646,  2647,  2658</quad4>
					<quad4 id="7">  2658,  2647,  2648,  2659</quad4>
					<quad4 id="8">  2659,  2648,  2649,  2660</quad4>
					<quad4 id="9">  2660,  2649,  2650,  2661</quad4>
					<quad4 id="10">  2661,  2650,  2651,  2662</quad4>
					<quad4 id="11">  2641,  2630,  2631,  2642</quad4>
					<quad4 id="12">  2642,  2631,  2632,  2643</quad4>
					<quad4 id="13">  2643,  2632,  2633,  2644</quad4>
					<quad4 id="14">  2644,  2633,  2634,  2645</quad4>
					<quad4 id="15">  2645,  2634,  2635,  2646</quad4>
					<quad4 id="16">  2646,  2635,  2636,  2647</quad4>
					<quad4 id="17">  2647,  2636,  2637,  2648</quad4>
					<quad4 id="18">  2648,  2637,  2638,  2649</quad4>
					<quad4 id="19">  2649,  2638,  2639,  2650</quad4>
					<quad4 id="20">  2650,  2639,  2640,  2651</quad4>
<!-- ... 80 like lines cut -->
				</surface>
				<surface type="slave">
					<quad4 id="1">  2421,  2432,  2433,  2422</quad4>
					<quad4 id="2">  2422,  2433,  2434,  2423</quad4>
					<quad4 id="3">  2423,  2434,  2435,  2424</quad4>
					<quad4 id="4">  2424,  2435,  2436,  2425</quad4>
					<quad4 id="5">  2425,  2436,  2437,  2426</quad4>
					<quad4 id="6">  2426,  2437,  2438,  2427</quad4>
					<quad4 id="7">  2427,  2438,  2439,  2428</quad4>
					<quad4 id="8">  2428,  2439,  2440,  2429</quad4>
					<quad4 id="9">  2429,  2440,  2441,  2430</quad4>
					<quad4 id="10">  2430,  2441,  2442,  2431</quad4>
					<quad4 id="11">  2432,  2443,  2444,  2433</quad4>
					<quad4 id="12">  2433,  2444,  2445,  2434</quad4>
					<quad4 id="13">  2434,  2445,  2446,  2435</quad4>
					<quad4 id="14">  2435,  2446,  2447,  2436</quad4>
					<quad4 id="15">  2436,  2447,  2448,  2437</quad4>
					<quad4 id="16">  2437,  2448,  2449,  2438</quad4>
					<quad4 id="17">  2438,  2449,  2450,  2439</quad4>
					<quad4 id="18">  2439,  2450,  2451,  2440</quad4>
					<quad4 id="19">  2440,  2451,  2452,  2441</quad4>
					<quad4 id="20">  2441,  2452,  2453,  2442</quad4>
<!-- ... 80 like lines cut -->
				</surface>
			</contact>
		</Contact>
	</Step>
</febio_spec>
