<?xml version="1.0" encoding="ISO-8859-1"?>
<febio_spec version="2.0">
	<Globals>
		<Constants>
			<T>0</T>
			<R>0</R>
			<Fc>0</Fc>
		</Constants>
	</Globals>
	<Material>
		<material id="1" name="Material1" type="isotropic elastic">
			<density>1</density>
			<E>9e+008</E>
			<v>0</v>
		</material>
		<material id="2" name="Material2" type="rigid body">
			<density>1</density>
			<center_of_mass>0,0,0</center_of_mass>
		</material>
		<material id="3" name="Material3" type="rigid body">
			<density>1</density>
			<center_of_mass>0,0,0</center_of_mass>
		</material>
	</Material>
	<Geometry>
		<Nodes>
			<node id="1">-5.0000000e-001,-5.0000000e+000, 0.0000000e+000</node>
			<node id="2">-5.0000000e-001,-5.0000000e+000, 2.0000000e-002</node>
			<node id="3">-5.0000000e-001,-5.0000000e+000, 4.0000000e-002</node>
			<node id="4">-5.0000000e-001,-5.0000000e+000, 6.0000000e-002</node>
			<node id="5">-5.0000000e-001,-5.0000000e+000, 8.0000000e-002</node>
			<node id="6">-5.0000000e-001,-5.0000000e+000, 1.0000000e-001</node>
			<node id="7">-5.0000000e-001,-5.0000000e+000, 1.2000000e-001</node>
			<node id="8">-5.0000000e-001,-5.0000000e+000, 1.4000000e-001</node>
			<node id="9">-5.0000000e-001,-5.0000000e+000, 1.6000000e-001</node>
			<node id="10">-5.0000000e-001,-5.0000000e+000, 1.8000000e-001</node>
			<node id="11">-5.0000000e-001,-5.0000000e+000, 2.0000000e-001</node>
			<node id="12">-5.0000000e-001,-4.6666667e+000, 0.0000000e+000</node>
			<node id="13">-5.0000000e-001,-4.6666667e+000, 2.0000000e-002</node>
			<node id="14">-5.0000000e-001,-4.6666667e+000, 4.0000000e-002</node>
			<node id="15">-5.0000000e-001,-4.6666667e+000, 6.0000000e-002</node>
			<node id="16">-5.0000000e-001,-4.6666667e+000, 8.0000000e-002</node>
			<node id="17">-5.0000000e-001,-4.6666667e+000, 1.0000000e-001</node>
			<node id="18">-5.0000000e-001,-4.6666667e+000, 1.2000000e-001</node>
			<node id="19">-5.0000000e-001,-4.6666667e+000, 1.4000000e-001</node>
			<node id="20">-5.0000000e-001,-4.6666667e+000, 1.6000000e-001</node>
<!-- ... 10144 like lines cut -->
		</Nodes>
		<Elements type="hex8" mat="1" elset="Part1">
			<elem id="1">     1,   342,   353,    12,     2,   343,   354,    13</elem>
			<elem id="2">     2,   343,   354,    13,     3,   344,   355,    14</elem>
			<elem id="3">     3,   344,   355,    14,     4,   345,   356,    15</elem>
			<elem id="4">     4,   345,   356,    15,     5,   346,   357,    16</elem>
			<elem id="5">     5,   346,   357,    16,     6,   347,   358,    17</elem>
			<elem id="6">     6,   347,   358,    17,     7,   348,   359,    18</elem>
			<elem id="7">     7,   348,   359,    18,     8,   349,   360,    19</elem>
			<elem id="8">     8,   349,   360,    19,     9,   350,   361,    20</elem>
			<elem id="9">     9,   350,   361,    20,    10,   351,   362,    21</elem>
			<elem id="10">    10,   351,   362,    21,    11,   352,   363,    22</elem>
			<elem id="11">    12,   353,   364,    23,    13,   354,   365,    24</elem>
			<elem id="12">    13,   354,   365,    24,    14,   355,   366,    25</elem>
			<elem id="13">    14,   355,   366,    25,    15,   356,   367,    26</elem>
			<elem id="14">    15,   356,   367,    26,    16,   357,   368,    27</elem>
			<elem id="15">    16,   357,   368,    27,    17,   358,   369,    28</elem>
			<elem id="16">    17,   358,   369,    28,    18,   359,   370,    29</elem>
			<elem id="17">    18,   359,   370,    29,    19,   360,   371,    30</elem>
			<elem id="18">    19,   360,   371,    30,    20,   361,   372,    31</elem>
			<elem id="19">    20,   361,   372,    31,    21,   362,   373,    32</elem>
			<elem id="20">    21,   362,   373,    32,    22,   363,   374,    33</elem>
<!-- ... 2980 like lines cut -->
		</Elements>
		<Elements type="hex8" mat="1" elset="Part2">
			<elem id="3001">  3752,  4093,  4104,  3763,  3753,  4094,  4105,  3764</elem>
			<elem id="3002">  3753,  4094,  4105,  3764,  3754,  4095,  4106,  3765</elem>
			<elem id="3003">  3754,  4095,  4106,  3765,  3755,  4096,  4107,  3766</elem>
			<elem id="3004">  3755,  4096,  4107,  3766,  3756,  4097,  4108,  3767</elem>
			<elem id="3005">  3756,  4097,  4108,  3767,  3757,  4098,  4109,  3768</elem>
			<elem id="3006">  3757,  4098,  4109,  3768,  3758,  4099,  4110,  3769</elem>
			<elem id="3007">  3758,  4099,  4110,  3769,  3759,  4100,  4111,  3770</elem>
			<elem id="3008">  3759,  4100,  4111,  3770,  3760,  4101,  4112,  3771</elem>
			<elem id="3009">  3760,  4101,  4112,  3771,  3761,  4102,  4113,  3772</elem>
			<elem id="3010">  3761,  4102,  4113,  3772,  3762,  4103,  4114,  3773</elem>
			<elem id="3011">  3763,  4104,  4115,  3774,  3764,  4105,  4116,  3775</elem>
			<elem id="3012">  3764,  4105,  4116,  3775,  3765,  4106,  4117,  3776</elem>
			<elem id="3013">  3765,  4106,  4117,  3776,  3766,  4107,  4118,  3777</elem>
			<elem id="3014">  3766,  4107,  4118,  3777,  3767,  4108,  4119,  3778</elem>
			<elem id="3015">  3767,  4108,  4119,  3778,  3768,  4109,  4120,  3779</elem>
			<elem id="3016">  3768,  4109,  4120,  3779,  3769,  4110,  4121,  3780</elem>
			<elem id="3017">  3769,  4110,  4121,  3780,  3770,  4111,  4122,  3781</elem>
			<elem id="3018">  3770,  4111,  4122,  3781,  3771,  4112,  4123,  3782</elem>
			<elem id="3019">  3771,  4112,  4123,  3782,  3772,  4113,  4124,  3783</elem>
			<elem id="3020">  3772,  4113,  4124,  3783,  3773,  4114,  4125,  3784</elem>
<!-- ... 2980 like lines cut -->
		</Elements>
		<Elements type="hex8" mat="2" elset="Part3">
			<elem id="6001">  7503,  7624,  7635,  7514,  7504,  7625,  7636,  7515</elem>
			<elem id="6002">  7504,  7625,  7636,  7515,  7505,  7626,  7637,  7516</elem>
			<elem id="6003">  7505,  7626,  7637,  7516,  7506,  7627,  7638,  7517</elem>
			<elem id="6004">  7506,  7627,  7638,  7517,  7507,  7628,  7639,  7518</elem>
			<elem id="6005">  7507,  7628,  7639,  7518,  7508,  7629,  7640,  7519</elem>
			<elem id="6006">  7508,  7629,  7640,  7519,  7509,  7630,  7641,  7520</elem>
			<elem id="6007">  7509,  7630,  7641,  7520,  7510,  7631,  7642,  7521</elem>
			<elem id="6008">  7510,  7631,  7642,  7521,  7511,  7632,  7643,  7522</elem>
			<elem id="6009">  7511,  7632,  7643,  7522,  7512,  7633,  7644,  7523</elem>
			<elem id="6010">  7512,  7633,  7644,  7523,  7513,  7634,  7645,  7524</elem>
			<elem id="6011">  7514,  7635,  7646,  7525,  7515,  7636,  7647,  7526</elem>
			<elem id="6012">  7515,  7636,  7647,  7526,  7516,  7637,  7648,  7527</elem>
			<elem id="6013">  7516,  7637,  7648,  7527,  7517,  7638,  7649,  7528</elem>
			<elem id="6014">  7517,  7638,  7649,  7528,  7518,  7639,  7650,  7529</elem>
			<elem id="6015">  7518,  7639,  7650,  7529,  7519,  7640,  7651,  7530</elem>
			<elem id="6016">  7519,  7640,  7651,  7530,  7520,  7641,  7652,  7531</elem>
			<elem id="6017">  7520,  7641,  7652,  7531,  7521,  7642,  7653,  7532</elem>
			<elem id="6018">  7521,  7642,  7653,  7532,  7522,  7643,  7654,  7533</elem>
			<elem id="6019">  7522,  7643,  7654,  7533,  7523,  7644,  7655,  7534</elem>
			<elem id="6020">  7523,  7644,  7655,  7534,  7524,  7645,  7656,  7535</elem>
<!-- ... 980 like lines cut -->
		</Elements>
		<Elements type="hex8" mat="3" elset="Part27">
			<elem id="7001">  8834,  8955,  8966,  8845,  8835,  8956,  8967,  8846</elem>
			<elem id="7002">  8835,  8956,  8967,  8846,  8836,  8957,  8968,  8847</elem>
			<elem id="7003">  8836,  8957,  8968,  8847,  8837,  8958,  8969,  8848</elem>
			<elem id="7004">  8837,  8958,  8969,  8848,  8838,  8959,  8970,  8849</elem>
			<elem id="7005">  8838,  8959,  8970,  8849,  8839,  8960,  8971,  8850</elem>
			<elem id="7006">  8839,  8960,  8971,  8850,  8840,  8961,  8972,  8851</elem>
			<elem id="7007">  8840,  8961,  8972,  8851,  8841,  8962,  8973,  8852</elem>
			<elem id="7008">  8841,  8962,  8973,  8852,  8842,  8963,  8974,  8853</elem>
			<elem id="7009">  8842,  8963,  8974,  8853,  8843,  8964,  8975,  8854</elem>
			<elem id="7010">  8843,  8964,  8975,  8854,  8844,  8965,  8976,  8855</elem>
			<elem id="7011">  8845,  8966,  8977,  8856,  8846,  8967,  8978,  8857</elem>
			<elem id="7012">  8846,  8967,  8978,  8857,  8847,  8968,  8979,  8858</elem>
			<elem id="7013">  8847,  8968,  8979,  8858,  8848,  8969,  8980,  8859</elem>
			<elem id="7014">  8848,  8969,  8980,  8859,  8849,  8970,  8981,  8860</elem>
			<elem id="7015">  8849,  8970,  8981,  8860,  8850,  8971,  8982,  8861</elem>
			<elem id="7016">  8850,  8971,  8982,  8861,  8851,  8972,  8983,  8862</elem>
			<elem id="7017">  8851,  8972,  8983,  8862,  8852,  8973,  8984,  8863</elem>
			<elem id="7018">  8852,  8973,  8984,  8863,  8853,  8974,  8985,  8864</elem>
			<elem id="7019">  8853,  8974,  8985,  8864,  8854,  8975,  8986,  8865</elem>
			<elem id="7020">  8854,  8975,  8986,  8865,  8855,  8976,  8987,  8866</elem>
<!-- ... 980 like lines cut -->
		</Elements>
	</Geometry>
	<Boundary>
		<fix bc="xyz">
			<node id="331"/>
			<node id="332"/>
			<node id="333"/>
			<node id="334"/>
			<node id="335"/>
			<node id="336"/>
			<node id="337"/>
			<node id="338"/>
			<node id="339"/>
			<node id="340"/>
			<node id="341"/>
			<node id="672"/>
			<node id="673"/>
			<node id="674"/>
			<node id="675"/>
			<node id="676"/>
			<node id="677"/>
			<node id="678"/>
			<node id="679"/>
			<node id="680"/>
<!-- ... 222 like lines cut -->
		</fix>
		<fix bc="uvw">
			<node id="331"/>
			<node id="332"/>
			<node id="333"/>
			<node id="334"/>
			<node id="335"/>
			<node id="336"/>
			<node id="337"/>
			<node id="338"/>
			<node id="339"/>
			<node id="340"/>
			<node id="341"/>
			<node id="672"/>
			<node id="673"/>
			<node id="674"/>
			<node id="675"/>
			<node id="676"/>
			<node id="677"/>
			<node id="678"/>
			<node id="679"/>
			<node id="680"/>
<!-- ... 222 like lines cut -->
		</fix>
	</Boundary>
	<Contact>
		<contact type="rigid" name="Rigid02">
			<node id="3762" rb="2"></node>
			<node id="3773" rb="2"></node>
			<node id="3784" rb="2"></node>
			<node id="3795" rb="2"></node>
			<node id="3806" rb="2"></node>
			<node id="3817" rb="2"></node>
			<node id="3828" rb="2"></node>
			<node id="3839" rb="2"></node>
			<node id="3850" rb="2"></node>
			<node id="3861" rb="2"></node>
			<node id="3872" rb="2"></node>
			<node id="3883" rb="2"></node>
			<node id="3894" rb="2"></node>
			<node id="3905" rb="2"></node>
			<node id="3916" rb="2"></node>
			<node id="3927" rb="2"></node>
			<node id="3938" rb="2"></node>
			<node id="3949" rb="2"></node>
			<node id="3960" rb="2"></node>
			<node id="3971" rb="2"></node>
<!-- ... 321 like lines cut -->
		</contact>
		<contact type="rigid" name="Rigid03">
			<node id="1" rb="3"></node>
			<node id="12" rb="3"></node>
			<node id="23" rb="3"></node>
			<node id="34" rb="3"></node>
			<node id="45" rb="3"></node>
			<node id="56" rb="3"></node>
			<node id="67" rb="3"></node>
			<node id="78" rb="3"></node>
			<node id="89" rb="3"></node>
			<node id="100" rb="3"></node>
			<node id="111" rb="3"></node>
			<node id="122" rb="3"></node>
			<node id="133" rb="3"></node>
			<node id="144" rb="3"></node>
			<node id="155" rb="3"></node>
			<node id="166" rb="3"></node>
			<node id="177" rb="3"></node>
			<node id="188" rb="3"></node>
			<node id="199" rb="3"></node>
			<node id="210" rb="3"></node>
<!-- ... 321 like lines cut -->
		</contact>
	</Contact>
	<Constraints>
		<rigid_body mat="2">
			<prescribed bc="z" lc="1">0.0011</prescribed>
		</rigid_body>
		<rigid_body mat="3">
			<prescribed bc="z" lc="2">-0.0011</prescribed>
		</rigid_body>
	</Constraints>
	<LoadData>
		<loadcurve id="1" type="smooth">
			<point>0,0</point>
			<point>1,1</point>
		</loadcurve>
		<loadcurve id="2" type="smooth">
			<point>0,0</point>
			<point>1,1</point>
		</loadcurve>
	</LoadData>
	<Output>
		<plotfile type="febio">
			<var type="acceleration"/>
			<var type="contact force"/>
			<var type="contact gap"/>
			<var type="contact opening-gap"/>
			<var type="contact pressure"/>
			<var type="contact traction"/>
			<var type="displacement"/>
			<var type="reaction forces"/>
			<var type="stress"/>
			<var type="temperature"/>
			<var type="velocity"/>
            <var type="Fracture Energy"/>	
            <var type="Critical Strain Energy Release Rate Gc"/>				
		</plotfile>
	</Output>
	<Step name="Step01">
		<Module type="solid"/>
		<Control>
			<time_steps>18</time_steps>
			<step_size>0.01</step_size>
			<max_refs>3500</max_refs>
			<max_ups>0</max_ups>
			<dtol>0.001</dtol>
			<etol>0.01</etol>
			<rtol>0</rtol>
			<lstol>0.9</lstol>
			<analysis type="static"/>
		</Control>
		<Boundary>
		</Boundary>
		<Contact>
			<contact type="facet-to-facet sliding" name="Sliding01">
				<laugon>0</laugon>
				<tolerance>0.2</tolerance>
				<penalty>1</penalty>
				<two_pass>0</two_pass>
				<auto_penalty>0</auto_penalty>
				<fric_coeff>0</fric_coeff>
				<fric_penalty>0</fric_penalty>
				<search_tol>0.01</search_tol>
				<n_interf_strength>20000</n_interf_strength>
			    <t_interf_strength>20000</t_interf_strength>
			    <n_char_op>0.0001</n_char_op>
			    <t_char_op>0.0001</t_char_op>				
				<minaug>0</minaug>
				<maxaug>10</maxaug>
				<gaptol>0</gaptol>
				<seg_up>0</seg_up>
				<surface type="master">
					<quad4 id="1">    33,   374,   385,    44</quad4>
					<quad4 id="2">    44,   385,   396,    55</quad4>
					<quad4 id="3">    55,   396,   407,    66</quad4>
					<quad4 id="4">   374,   715,   726,   385</quad4>
					<quad4 id="5">   385,   726,   737,   396</quad4>
					<quad4 id="6">   396,   737,   748,   407</quad4>
					<quad4 id="7">   715,  1056,  1067,   726</quad4>
					<quad4 id="8">   726,  1067,  1078,   737</quad4>
					<quad4 id="9">   737,  1078,  1089,   748</quad4>
					<quad4 id="10">  1056,  1397,  1408,  1067</quad4>
					<quad4 id="11">  1067,  1408,  1419,  1078</quad4>
					<quad4 id="12">  1078,  1419,  1430,  1089</quad4>
					<quad4 id="13">  1397,  1738,  1749,  1408</quad4>
					<quad4 id="14">  1408,  1749,  1760,  1419</quad4>
					<quad4 id="15">  1419,  1760,  1771,  1430</quad4>
					<quad4 id="16">  1738,  2079,  2090,  1749</quad4>
					<quad4 id="17">  1749,  2090,  2101,  1760</quad4>
					<quad4 id="18">  1760,  2101,  2112,  1771</quad4>
					<quad4 id="19">  2079,  2420,  2431,  2090</quad4>
					<quad4 id="20">  2090,  2431,  2442,  2101</quad4>
<!-- ... 10 like lines cut -->
				</surface>
				<surface type="slave">
					<quad4 id="1">  3796,  3807,  4148,  4137</quad4>
					<quad4 id="2">  3785,  3796,  4137,  4126</quad4>
					<quad4 id="3">  3774,  3785,  4126,  4115</quad4>
					<quad4 id="4">  4137,  4148,  4489,  4478</quad4>
					<quad4 id="5">  4126,  4137,  4478,  4467</quad4>
					<quad4 id="6">  4115,  4126,  4467,  4456</quad4>
					<quad4 id="7">  4478,  4489,  4830,  4819</quad4>
					<quad4 id="8">  4467,  4478,  4819,  4808</quad4>
					<quad4 id="9">  4456,  4467,  4808,  4797</quad4>
					<quad4 id="10">  4819,  4830,  5171,  5160</quad4>
					<quad4 id="11">  4808,  4819,  5160,  5149</quad4>
					<quad4 id="12">  4797,  4808,  5149,  5138</quad4>
					<quad4 id="13">  5160,  5171,  5512,  5501</quad4>
					<quad4 id="14">  5149,  5160,  5501,  5490</quad4>
					<quad4 id="15">  5138,  5149,  5490,  5479</quad4>
					<quad4 id="16">  5501,  5512,  5853,  5842</quad4>
					<quad4 id="17">  5490,  5501,  5842,  5831</quad4>
					<quad4 id="18">  5479,  5490,  5831,  5820</quad4>
					<quad4 id="19">  5842,  5853,  6194,  6183</quad4>
					<quad4 id="20">  5831,  5842,  6183,  6172</quad4>
<!-- ... 10 like lines cut -->
				</surface>
			</contact>
		</Contact>
	</Step>
</febio_spec>
